*
*
*
*                       LINUX           Wed Oct 16 05:40:19 2024
*
*
*
*  PROGRAM  advgen
*
*  Name           : advgen - Quantus - (64-bit)
*  Version        : 22.1.1-p041
*  Build Date     : Mon Apr 17 07:36:05 PDT 2023
*
*  HSPICE LIBRARY
*
*  QRC_TECH_DIR /home/viterbi/01/ee577/CDS_GPDK45/gpdk045_v_5_0/qrc/typical 
*
*!LENGTH_UNITS METERS
*
*
*

*
.SUBCKT 1_bit_Full_Adder_ver1 A B Cin Cout S gnd! vdd!
*
*
*  caps2d version: 10
*
*
*       TRANSISTOR CARDS
*
*
MXI1/MNM3	XI1/net9#3	Cin#6	S#5	gnd!	g45n1svt
+ L=4.5e-08	W=1.2e-07
+ AD=1.68e-14	AS=1.68e-14	PD=5.2e-07	PS=5.2e-07
+ fw=1.2e-07 sa=1.4e-07 sb=1.4e-07 sca=9.20059 scb=0.00764836 scc=0.000159521
MXI1/MNM0	gnd!#18	XI1/net6#4	XI1/net1	gnd!
+ g45n1svt	L=4.5e-08	W=1.2e-07
+ AD=1.68e-14	AS=1.68e-14	PD=5.2e-07	PS=5.2e-07
+ fw=1.2e-07 sa=1.4e-07 sb=1.4e-07 sca=9.20059 scb=0.00764836 scc=0.000159521
MXI1/MNM2	XI1/net1#2	XI1/net14#4	S#4	gnd!	g45n1svt
+ L=4.5e-08	W=1.2e-07
+ AD=1.68e-14	AS=1.68e-14	PD=5.2e-07	PS=5.2e-07
+ fw=1.2e-07 sa=1.4e-07 sb=1.4e-07 sca=9.20059 scb=0.00764836 scc=0.000159521
MXI1/MNM1	gnd!#19	net3#10	XI1/net9	gnd!
+ g45n1svt	L=4.5e-08	W=1.2e-07
+ AD=1.68e-14	AS=1.68e-14	PD=5.2e-07	PS=5.2e-07
+ fw=1.2e-07 sa=1.4e-07 sb=1.4e-07 sca=9.20059 scb=0.00764836 scc=0.000159521
MXI1/XI12/MNM0	XI1/net6#7	net3#12	gnd!#20	gnd!
+ g45n1svt	L=4.5e-08	W=1.2e-07
+ AD=1.68e-14	AS=1.68e-14	PD=5.2e-07	PS=5.2e-07
+ fw=1.2e-07 sa=1.4e-07 sb=1.4e-07 sca=9.20059 scb=0.00764836 scc=0.000159521
MXI1/XI13/MNM0	XI1/net14#7	Cin#7	gnd!#21	gnd!	g45n1svt
+ L=4.5e-08	W=1.2e-07
+ AD=1.68e-14	AS=1.68e-14	PD=5.2e-07	PS=5.2e-07
+ fw=1.2e-07 sa=1.4e-07 sb=1.4e-07 sca=9.20059 scb=0.00764836 scc=0.000159521
MXI0/MNM1	net3#20	A#2	XI0/net9#3	gnd!	g45n1svt
+ L=4.5e-08	W=1.2e-07
+ AD=1.68e-14	AS=1.68e-14	PD=5.2e-07	PS=5.2e-07
+ fw=1.2e-07 sa=1.4e-07 sb=1.4e-07 sca=9.20059 scb=0.00764836 scc=0.000159521
MXI0/MNM2	XI0/net1	XI0/net14#4	gnd!#25	gnd!
+ g45n1svt	L=4.5e-08	W=1.2e-07
+ AD=1.68e-14	AS=1.68e-14	PD=5.2e-07	PS=5.2e-07
+ fw=1.2e-07 sa=1.4e-07 sb=1.4e-07 sca=9.20059 scb=0.00764836 scc=0.000159521
MXI0/MNM0	net3#18	XI0/net6#4	XI0/net1#2	gnd!
+ g45n1svt	L=4.5e-08	W=1.2e-07
+ AD=1.68e-14	AS=1.68e-14	PD=5.2e-07	PS=5.2e-07
+ fw=1.2e-07 sa=1.4e-07 sb=1.4e-07 sca=9.20059 scb=0.00764836 scc=0.000159521
MXI0/MNM3	XI0/net9	B#6	gnd!#26	gnd!	g45n1svt
+ L=4.5e-08	W=1.2e-07
+ AD=1.68e-14	AS=1.68e-14	PD=5.2e-07	PS=5.2e-07
+ fw=1.2e-07 sa=1.4e-07 sb=1.4e-07 sca=9.20059 scb=0.00764836 scc=0.000159521
MXI0/XI13/MNM0	XI0/net14#7	B#8	gnd!#27	gnd!	g45n1svt
+ L=4.5e-08	W=1.2e-07
+ AD=1.68e-14	AS=1.68e-14	PD=5.2e-07	PS=5.2e-07
+ fw=1.2e-07 sa=1.4e-07 sb=1.4e-07 sca=9.20059 scb=0.00764836 scc=0.000159521
MXI0/XI12/MNM0	XI0/net6#7	A#3	gnd!#17	gnd!	g45n1svt
+ L=4.5e-08	W=1.2e-07
+ AD=1.68e-14	AS=1.68e-14	PD=5.2e-07	PS=5.2e-07
+ fw=1.2e-07 sa=1.4e-07 sb=1.4e-07 sca=9.20059 scb=0.00764836 scc=0.000159521
MXI2/MNM0	gnd!#24	net3#4	XI2/net9	gnd!	g45n1svt
+ L=4.5e-08	W=1.2e-07
+ AD=1.68e-14	AS=7.2e-15	PD=5.2e-07	PS=3.6e-07
+ fw=1.2e-07 sa=1.4e-07 sb=2.45e-07 sca=7.31073 scb=0.00435535 scc=4.26584e-05
MXI2/MNM1	XI2/net9	Cin#3	net9#8	gnd!	g45n1svt
+ L=4.5e-08	W=1.2e-07
+ AD=7.2e-15	AS=1.68e-14	PD=3.6e-07	PS=5.2e-07
+ fw=1.2e-07 sa=2.45e-07 sb=1.4e-07 sca=7.31073 scb=0.00435535 scc=4.26584e-05
MXI3/MNM0	gnd!#22	net10#4	XI3/net9	gnd!
+ g45n1svt	L=4.5e-08	W=1.2e-07
+ AD=1.68e-14	AS=7.2e-15	PD=5.2e-07	PS=3.6e-07
+ fw=1.2e-07 sa=1.4e-07 sb=2.45e-07 sca=7.31073 scb=0.00435535 scc=4.26584e-05
MXI3/MNM1	XI3/net9	net9#3	Cout#4	gnd!	g45n1svt
+ L=4.5e-08	W=1.2e-07
+ AD=7.2e-15	AS=1.68e-14	PD=3.6e-07	PS=5.2e-07
+ fw=1.2e-07 sa=2.45e-07 sb=1.4e-07 sca=7.31073 scb=0.00435535 scc=4.26584e-05
MXI4/MNM1	XI4/net9	B#12	gnd!#23	gnd!	g45n1svt
+ L=4.5e-08	W=1.2e-07
+ AD=7.2e-15	AS=1.68e-14	PD=3.6e-07	PS=5.2e-07
+ fw=1.2e-07 sa=1.4e-07 sb=2.45e-07 sca=7.31073 scb=0.00435535 scc=4.26584e-05
MXI4/MNM0	net10#8	A#9	XI4/net9	gnd!	g45n1svt
+ L=4.5e-08	W=1.2e-07
+ AD=1.68e-14	AS=7.2e-15	PD=5.2e-07	PS=3.6e-07
+ fw=1.2e-07 sa=2.45e-07 sb=1.4e-07 sca=7.31073 scb=0.00435535 scc=4.26584e-05
MXI1/MPM0	XI1/net4	net3#5	vdd!#22	vdd!	g45p1svt
+ L=4.5e-08	W=2.4e-07
+ AD=3.36e-14	AS=3.36e-14	PD=7.6e-07	PS=7.6e-07
+ fw=2.4e-07 sa=1.4e-07 sb=1.4e-07 sca=10.2959 scb=0.00764059 scc=8.89329e-05
MXI1/MPM3	S#7	XI1/net14	XI1/net4#3	vdd!	g45p1svt
+ L=4.5e-08	W=2.4e-07
+ AD=3.36e-14	AS=3.36e-14	PD=7.6e-07	PS=7.6e-07
+ fw=2.4e-07 sa=1.4e-07 sb=1.4e-07 sca=10.2959 scb=0.00764059 scc=8.89329e-05
MXI0/MPM2	XI0/net4	B#1	vdd!#32	vdd!	g45p1svt
+ L=4.5e-08	W=2.4e-07
+ AD=3.36e-14	AS=3.36e-14	PD=7.6e-07	PS=7.6e-07
+ fw=2.4e-07 sa=1.4e-07 sb=1.4e-07 sca=10.2959 scb=0.00764059 scc=8.89329e-05
MXI0/MPM1	net3#22	XI0/net6	XI0/net4#3	vdd!
+ g45p1svt	L=4.5e-08	W=2.4e-07
+ AD=3.36e-14	AS=3.36e-14	PD=7.6e-07	PS=7.6e-07
+ fw=2.4e-07 sa=1.4e-07 sb=1.4e-07 sca=10.2959 scb=0.00764059 scc=8.89329e-05
MXI2/MPM1	net9#7	net3	vdd!#30	vdd!	g45p1svt
+ L=4.5e-08	W=4.8e-07
+ AD=7.68e-14	AS=6.72e-14	PD=1.28e-06	PS=1.24e-06
+ fw=4.8e-07 sa=1.4e-07 sb=3.45e-07 sca=15.9511 scb=0.0138709 scc=0.00113792
MXI2/MPM0	net9#7	Cin#4	vdd!#29	vdd!	g45p1svt
+ L=4.5e-08	W=4.8e-07
+ AD=7.68e-14	AS=6.72e-14	PD=1.28e-06	PS=1.24e-06
+ fw=4.8e-07 sa=3.45e-07 sb=1.4e-07 sca=15.9511 scb=0.0138709 scc=0.00113792
MXI3/MPM1	Cout#3	net10	vdd!#26	vdd!	g45p1svt
+ L=4.5e-08	W=2.4e-07
+ AD=3.84e-14	AS=3.36e-14	PD=8e-07	PS=7.6e-07
+ fw=2.4e-07 sa=1.4e-07 sb=3.45e-07 sca=21.6767 scb=0.0202328 scc=0.0021948
MXI3/MPM0	Cout#3	net9#4	vdd!#25	vdd!	g45p1svt
+ L=4.5e-08	W=2.4e-07
+ AD=3.84e-14	AS=3.36e-14	PD=8e-07	PS=7.6e-07
+ fw=2.4e-07 sa=3.45e-07 sb=1.4e-07 sca=21.6767 scb=0.0202328 scc=0.0021948
MXI4/MPM0	net10#7	B#9	vdd!#28	vdd!	g45p1svt
+ L=4.5e-08	W=2.4e-07
+ AD=3.84e-14	AS=3.36e-14	PD=8e-07	PS=7.6e-07
+ fw=2.4e-07 sa=1.4e-07 sb=3.45e-07 sca=21.6767 scb=0.0202328 scc=0.0021948
MXI4/MPM1	net10#7	A#10	vdd!#27	vdd!	g45p1svt
+ L=4.5e-08	W=2.4e-07
+ AD=3.84e-14	AS=3.36e-14	PD=8e-07	PS=7.6e-07
+ fw=2.4e-07 sa=3.45e-07 sb=1.4e-07 sca=21.6767 scb=0.0202328 scc=0.0021948
MXI0/XI12/MPM0	XI0/net6#8	A#6	vdd!#20	vdd!	g45p1svt
+ L=4.5e-08	W=2.4e-07
+ AD=3.36e-14	AS=3.36e-14	PD=7.6e-07	PS=7.6e-07
+ fw=2.4e-07 sa=1.4e-07 sb=1.4e-07 sca=17.6861 scb=0.0184591 scc=0.000433664
MXI0/XI13/MPM0	XI0/net14#8	B#7	vdd!#33	vdd!	g45p1svt
+ L=4.5e-08	W=2.4e-07
+ AD=3.36e-14	AS=3.36e-14	PD=7.6e-07	PS=7.6e-07
+ fw=2.4e-07 sa=1.4e-07 sb=1.4e-07 sca=10.886 scb=0.00790338 scc=9.25552e-05
MXI0/MPM3	net3#21	XI0/net14	XI0/net4#5	vdd!
+ g45p1svt	L=4.5e-08	W=2.4e-07
+ AD=3.36e-14	AS=3.36e-14	PD=7.6e-07	PS=7.6e-07
+ fw=2.4e-07 sa=1.4e-07 sb=1.4e-07 sca=10.2959 scb=0.00764059 scc=8.89329e-05
MXI0/MPM0	XI0/net4#7	A#1	vdd!#31	vdd!	g45p1svt
+ L=4.5e-08	W=2.4e-07
+ AD=3.36e-14	AS=3.36e-14	PD=7.6e-07	PS=7.6e-07
+ fw=2.4e-07 sa=1.4e-07 sb=1.4e-07 sca=10.2959 scb=0.00764059 scc=8.89329e-05
MXI1/XI13/MPM0	XI1/net14#8	Cin#10	vdd!#24	vdd!	g45p1svt
+ L=4.5e-08	W=2.4e-07
+ AD=3.36e-14	AS=3.36e-14	PD=7.6e-07	PS=7.6e-07
+ fw=2.4e-07 sa=1.4e-07 sb=1.4e-07 sca=10.327 scb=0.00769864 scc=9.24832e-05
MXI1/XI12/MPM0	XI1/net6#8	net3#11	vdd!#23	vdd!
+ g45p1svt	L=4.5e-08	W=2.4e-07
+ AD=3.36e-14	AS=3.36e-14	PD=7.6e-07	PS=7.6e-07
+ fw=2.4e-07 sa=1.4e-07 sb=1.4e-07 sca=10.327 scb=0.00769864 scc=9.24832e-05
MXI1/MPM1	S#6	XI1/net6	XI1/net4#5	vdd!	g45p1svt
+ L=4.5e-08	W=2.4e-07
+ AD=3.36e-14	AS=3.36e-14	PD=7.6e-07	PS=7.6e-07
+ fw=2.4e-07 sa=1.4e-07 sb=1.4e-07 sca=10.6998 scb=0.00776618 scc=8.8963e-05
MXI1/MPM2	XI1/net4#7	Cin#5	vdd!#21	vdd!	g45p1svt
+ L=4.5e-08	W=2.4e-07
+ AD=3.36e-14	AS=3.36e-14	PD=7.6e-07	PS=7.6e-07
+ fw=2.4e-07 sa=1.4e-07 sb=1.4e-07 sca=15.8514 scb=0.0153841 scc=0.000245782
*
*
*       RESISTOR AND CAP/DIODE CARDS
*
Rh1	A#19	A	0.990077	$metal4_conn	$W=9.4e-08
+ $X=0.32 $Y=1.1875
Rh2	A	A#21	2.913967	$metal4_conn	$W=1e-07
+ $X=2.774 $Y=1.495
Rh3	net9#17	net9#15	2.291841	$metal4_conn
+ $W=1e-07	$X=6.055 $Y=1.03
Rh4	net3#31	net3#29	3.066562	$metal4_conn
+ $W=1e-07	$X=6.6625 $Y=0.715
Ri1	A#19	A#15	0.500000	$metal3_conn	$W=8e-08
+ $X=0.135 $Y=0.905
Ri2	net3#29	net3#25	0.500000	$metal3_conn
+ $W=8e-08	$X=3.23 $Y=0.68
Ri3	net9#15	net9#11	0.500000	$metal3_conn
+ $W=8e-08	$X=4.035 $Y=0.645
Ri4	B#19	B	2.564316	$metal3_conn	$W=9.75e-08
+ $X=4.525 $Y=0.545
Ri5	B	B#17	0.975198	$metal3_conn	$W=9e-08
+ $X=0.43 $Y=0.5075
Ri6	A#21	A#17	0.500000	$metal3_conn	$W=8e-08
+ $X=5.005 $Y=0.91
Ri7	net9#17	net9#13	0.500000	$metal3_conn
+ $W=8e-08	$X=6.055 $Y=0.915
Ri8	Cin	Cin#19	1.850501	$metal3_conn	$W=1e-07
+ $X=2.0815 $Y=1.64
Ri9	Cin#19	Cin#15	0.828891	$metal3_conn	$W=1e-07
+ $X=4.01 $Y=1.2775
Ri10	Cin#19	Cin#17	1.873510	$metal3_conn	$W=9e-08
+ $X=6.185 $Y=1.36
Ri11	net3#31	net3#27	0.500000	$metal3_conn
+ $W=8e-08	$X=6.795 $Y=0.715
Ri12	Cout	Cout#5	2.356902	$metal3_conn	$W=9e-08
+ $X=6.185 $Y=0.5325
Rj1	A#15	A#12	0.500000	$metal2_conn	$W=8e-08
+ $X=0.135 $Y=0.905
Rj2	B#17	B#14	0.500000	$metal2_conn	$W=8e-08
+ $X=0.585 $Y=0.715
Rj3	XI0/net6#9	XI0/net6#5	1.632724	$metal2_conn
+ $W=9e-08	$X=1.125 $Y=0.96
Rj4	XI0/net14#10	XI0/net14#5	1.662252	$metal2_conn
+ $W=9e-08	$X=1.62 $Y=0.79
Rj5	XI0/net9#4	XI0/net9#2	1.529104	$metal2_conn
+ $W=1e-07	$X=2.2275 $Y=0.345
Rj6	XI0/net4#8	XI0/net4#6	0.716222	$metal2_conn
+ $W=1e-07	$X=2.5925 $Y=1.525
Rj7	XI0/net4#6	XI0/net4#4	0.216222	$metal2_conn
+ $W=1e-07	$X=2.1275 $Y=1.525
Rj8	XI0/net4#4	XI0/net4#2	0.617166	$metal2_conn
+ $W=1e-07	$X=1.765 $Y=1.525
Rj9	net3#25	net3#19	0.500000	$metal2_conn
+ $W=8e-08	$X=3.23 $Y=0.68
Rj10	net9#11	net9#5	0.500000	$metal2_conn	$W=8e-08
+ $X=4.035 $Y=0.645
Rj11	Cin#15	Cin#11	0.500000	$metal2_conn	$W=8e-08
+ $X=4.01 $Y=0.915
Rj12	B#19	B#16	0.500000	$metal2_conn	$W=8e-08
+ $X=4.325 $Y=0.78
Rj13	A#17	A#13	0.500000	$metal2_conn	$W=8e-08
+ $X=5.005 $Y=0.91
Rj14	Cout#5	Cout#1	0.500000	$metal2_conn	$W=8e-08
+ $X=6.035 $Y=0.665
Rj15	net9#13	net9#9	0.500000	$metal2_conn	$W=8e-08
+ $X=6.055 $Y=0.915
Rj16	Cin#17	Cin#14	0.500000	$metal2_conn	$W=8e-08
+ $X=6.335 $Y=1.08
Rj17	net3#27	net3#24	0.500000	$metal2_conn
+ $W=8e-08	$X=6.795 $Y=0.715
Rj18	XI1/net14#9	XI1/net14#5	1.632724	$metal2_conn
+ $W=9e-08	$X=7.325 $Y=0.96
Rj19	XI1/net6#10	XI1/net6#5	1.662252	$metal2_conn
+ $W=9e-08	$X=7.82 $Y=0.79
Rj20	XI1/net9#4	XI1/net9#2	1.529104	$metal2_conn
+ $W=1e-07	$X=8.4275 $Y=0.345
Rj21	XI1/net4#8	XI1/net4#6	0.716222	$metal2_conn
+ $W=1e-07	$X=8.7925 $Y=1.525
Rj22	XI1/net4#6	XI1/net4#4	0.216222	$metal2_conn
+ $W=1e-07	$X=8.3275 $Y=1.525
Rj23	XI1/net4#4	XI1/net4#2	0.617166	$metal2_conn
+ $W=1e-07	$X=7.965 $Y=1.525
Rk1	A#5	A#12	45.127346	$metal1_conn	$W=1e-07
+ $X=0.135 $Y=0.95
Rk2	XI0/net6#5	XI0/net6#6	0.024209	$metal1_conn
+ $W=1e-07	$X=0.48 $Y=0.96
Rk3	XI0/net6#6	XI0/net6#7	75.350723	$metal1_conn
+ $W=8.25e-08	$X=0.45 $Y=0.72
Rk4	XI0/net6#6	XI0/net6#8	31.295023	$metal1_conn
+ $W=8.5e-08	$X=0.45 $Y=1.1375
Rk5	B#5	B#14	45.087265	$metal1_conn	$W=1.15e-07
+ $X=0.66 $Y=0.79
Rk6	XI0/net14#5	XI0/net14#6	0.021229	$metal1_conn
+ $W=1e-07	$X=0.945 $Y=0.79
Rk7	XI0/net14#6	XI0/net14#7	75.216011	$metal1_conn
+ $W=9e-08	$X=0.915 $Y=0.635
Rk8	XI0/net14#6	XI0/net14#8	31.401072	$metal1_conn
+ $W=9e-08	$X=0.915 $Y=1.0525
Rk9	XI0/net4	XI0/net4#2	31.113667	$metal1_conn
+ $W=9e-08	$X=1.635 $Y=1.465
Rk10	XI0/net9	XI0/net9#2	75.093735	$metal1_conn
+ $W=9e-08	$X=1.635 $Y=0.4225
Rk11	XI0/net4#3	XI0/net4#4	31.606365	$metal1_conn
+ $W=9e-08	$X=1.895 $Y=1.4595
Rk12	XI0/net6#9	XI0/net6#3	45.115986	$metal1_conn
+ $W=1e-07	$X=1.7645 $Y=0.96
Rk13	XI0/net1	XI0/net1#2	150.607803	$metal1_conn
+ $W=8e-08	$X=2.1275 $Y=0.3
Rk14	XI0/net4#5	XI0/net4#6	31.606365	$metal1_conn
+ $W=9e-08	$X=2.36 $Y=1.4595
Rk15	XI0/net14#3	XI0/net14#10	45.075047	$metal1_conn
+ $W=1.15e-07	$X=2.3275 $Y=0.79
Rk16	XI0/net9#3	XI0/net9#4	75.089531	$metal1_conn
+ $W=9e-08	$X=2.825 $Y=0.4225
Rk17	XI0/net4#7	XI0/net4#8	31.106365	$metal1_conn
+ $W=9e-08	$X=2.825 $Y=1.4595
Rk18	net3#3	net3#14	45.121544	$metal1_conn	$W=1.15e-07
+ $X=3.3775 $Y=0.88
Rk19	net3#14	net3#15	0.172119	$metal1_conn
+ $W=1e-07	$X=3.125 $Y=0.795
Rk20	net3#15	net3#16	0.492923	$metal1_conn
+ $W=8.65e-08	$X=2.565 $Y=0.9175
Rk21	net3#16	net3#17	0.287422	$metal1_conn
+ $W=9e-08	$X=2.3325 $Y=1.04
Rk22	net3#17	net3#18	75.400574	$metal1_conn
+ $W=8.25e-08	$X=2.1 $Y=0.765
Rk23	net3#14	net3#19	0.056833	$metal1_conn
+ $W=1e-07	$X=3.23 $Y=0.7425
Rk24	net3#15	net3#20	75.212212	$metal1_conn
+ $W=8e-08	$X=3.03 $Y=0.6425
Rk25	net3#16	net3#21	31.236206	$metal1_conn
+ $W=9e-08	$X=2.565 $Y=1.175
Rk26	net3#17	net3#22	31.236206	$metal1_conn
+ $W=9e-08	$X=2.1 $Y=1.175
Rk27	net9#5	net9#6	0.290339	$metal1_conn	$W=8.5e-08
+ $X=3.8825 $Y=0.76
Rk28	net9#6	net9#7	15.976117	$metal1_conn	$W=7.75e-08
+ $X=3.635 $Y=0.9275
Rk29	net9#6	net9#8	75.211113	$metal1_conn	$W=1e-07
+ $X=3.74 $Y=0.5875
Rk30	Cin#11	Cin#1	45.116394	$metal1_conn	$W=1.095e-07
+ $X=3.9075 $Y=0.915
Rk31	B#11	B#16	45.116627	$metal1_conn	$W=1e-07
+ $X=4.325 $Y=0.825
Rk32	A#13	A#7	45.113712	$metal1_conn	$W=1.095e-07
+ $X=4.905 $Y=0.91
Rk33	net10#3	net10#6	45.570770	$metal1_conn
+ $W=8.5e-08	$X=5.0275 $Y=0.76
Rk34	net10#6	net10#7	31.377563	$metal1_conn
+ $W=7.75e-08	$X=4.635 $Y=0.9275
Rk35	net10#6	net10#8	75.211113	$metal1_conn
+ $W=1e-07	$X=4.74 $Y=0.5875
Rk36	Cout#1	Cout#2	0.278421	$metal1_conn	$W=8.5e-08
+ $X=5.8825 $Y=0.76
Rk37	Cout#2	Cout#3	31.377563	$metal1_conn	$W=7.75e-08
+ $X=5.635 $Y=0.9275
Rk38	Cout#2	Cout#4	75.211113	$metal1_conn	$W=1e-07
+ $X=5.74 $Y=0.5875
Rk39	net9#9	net9	45.146324	$metal1_conn	$W=1e-07
+ $X=5.9975 $Y=0.915
Rk40	Cin#9	Cin#14	45.074833	$metal1_conn	$W=1.15e-07
+ $X=6.4075 $Y=1.005
Rk41	XI1/net14#5	XI1/net14#6	0.024209	$metal1_conn
+ $W=1e-07	$X=6.68 $Y=0.96
Rk42	XI1/net14#6	XI1/net14#7	75.350441	$metal1_conn
+ $W=8.75e-08	$X=6.65 $Y=0.72
Rk43	XI1/net14#6	XI1/net14#8	31.295023	$metal1_conn
+ $W=8.5e-08	$X=6.65 $Y=1.1375
Rk44	net3#9	net3#24	45.069061	$metal1_conn	$W=1.15e-07
+ $X=6.865 $Y=0.79
Rk45	XI1/net6#5	XI1/net6#6	0.021229	$metal1_conn
+ $W=1e-07	$X=7.145 $Y=0.79
Rk46	XI1/net6#6	XI1/net6#7	75.216011	$metal1_conn
+ $W=9e-08	$X=7.115 $Y=0.635
Rk47	XI1/net6#6	XI1/net6#8	31.401072	$metal1_conn
+ $W=9e-08	$X=7.115 $Y=1.0525
Rk48	XI1/net4	XI1/net4#2	31.113667	$metal1_conn
+ $W=9e-08	$X=7.835 $Y=1.465
Rk49	XI1/net9	XI1/net9#2	75.093735	$metal1_conn
+ $W=9e-08	$X=7.835 $Y=0.4225
Rk50	XI1/net4#3	XI1/net4#4	31.606365	$metal1_conn
+ $W=9e-08	$X=8.095 $Y=1.4595
Rk51	XI1/net14#9	XI1/net14#3	45.115986	$metal1_conn
+ $W=1e-07	$X=7.9645 $Y=0.96
Rk52	XI1/net1	XI1/net1#2	150.607803	$metal1_conn
+ $W=8e-08	$X=8.3275 $Y=0.3
Rk53	XI1/net4#5	XI1/net4#6	31.606365	$metal1_conn
+ $W=9e-08	$X=8.56 $Y=1.4595
Rk54	XI1/net6#3	XI1/net6#10	45.075047	$metal1_conn
+ $W=1.15e-07	$X=8.5275 $Y=0.79
Rk55	XI1/net9#3	XI1/net9#4	75.089531	$metal1_conn
+ $W=9e-08	$X=9.025 $Y=0.4225
Rk56	XI1/net4#7	XI1/net4#8	31.106365	$metal1_conn
+ $W=9e-08	$X=9.025 $Y=1.4595
Rk58	vdd!#2	vdd!#4	0.433416	$metal1_conn	$W=1.25e-07
+ $X=8.81 $Y=1.78
Rk59	vdd!#4	vdd!#5	0.363640	$metal1_conn	$W=1.25e-07
+ $X=7.98 $Y=1.78
Rk60	vdd!#5	vdd!#6	0.358461	$metal1_conn	$W=1.25e-07
+ $X=7.27 $Y=1.78
Rk61	vdd!#6	vdd!#7	0.231368	$metal1_conn	$W=1.25e-07
+ $X=6.6775 $Y=1.78
Rk62	vdd!#7	vdd!#8	0.191690	$metal1_conn	$W=1.25e-07
+ $X=6.2675 $Y=1.78
Rk63	vdd!#8	vdd!#9	0.109454	$metal1_conn	$W=1.25e-07
+ $X=5.935 $Y=1.78
Rk64	vdd!#9	vdd!#10	0.203956	$metal1_conn	$W=1.25e-07
+ $X=5.635 $Y=1.78
Rk65	vdd!#10	vdd!#11	0.293668	$metal1_conn
+ $W=1.25e-07	$X=5.135 $Y=1.78
Rk66	vdd!#11	vdd!	0.035939	$metal1_conn	$W=1.25e-07
+ $X=4.789 $Y=1.78
Rk67	vdd!	vdd!#12	0.168016	$metal1_conn	$W=1.25e-07
+ $X=4.613 $Y=1.78
Rk68	vdd!#12	vdd!#13	0.293668	$metal1_conn
+ $W=1.25e-07	$X=4.135 $Y=1.78
Rk69	vdd!#13	vdd!#14	0.089518	$metal1_conn
+ $W=1.25e-07	$X=3.765 $Y=1.78
Rk70	vdd!#14	vdd!#15	0.114438	$metal1_conn
+ $W=1.25e-07	$X=3.53 $Y=1.78
Rk71	vdd!#15	vdd!#16	0.198972	$metal1_conn
+ $W=1.25e-07	$X=3.23 $Y=1.78
Rk72	vdd!#16	vdd!#17	0.797056	$metal1_conn
+ $W=1.25e-07	$X=2.23 $Y=1.78
Rk73	vdd!#17	vdd!#18	0.084534	$metal1_conn
+ $W=1.25e-07	$X=1.36 $Y=1.78
Rk74	vdd!#18	vdd!#19	0.273927	$metal1_conn
+ $W=1.25e-07	$X=0.97 $Y=1.78
Rk75	vdd!#19	vdd!#20	31.496695	$metal1_conn
+ $W=9e-08	$X=0.245 $Y=1.5875
Rk76	vdd!#2	vdd!#21	31.265997	$metal1_conn	$W=9e-08
+ $X=9.23 $Y=1.59
Rk77	vdd!#5	vdd!#22	31.266727	$metal1_conn	$W=9e-08
+ $X=7.63 $Y=1.59
Rk78	vdd!#6	vdd!#23	31.261982	$metal1_conn	$W=9e-08
+ $X=6.91 $Y=1.5875
Rk79	vdd!#7	vdd!#24	31.261982	$metal1_conn	$W=9e-08
+ $X=6.445 $Y=1.5875
Rk80	vdd!#9	vdd!#25	31.399958	$metal1_conn	$W=9e-08
+ $X=5.84 $Y=1.4825
Rk81	vdd!#10	vdd!#26	31.399958	$metal1_conn
+ $W=9e-08	$X=5.43 $Y=1.4825
Rk82	vdd!#11	vdd!#27	31.399958	$metal1_conn
+ $W=9e-08	$X=4.84 $Y=1.4825
Rk83	vdd!#12	vdd!#28	31.399958	$metal1_conn
+ $W=9e-08	$X=4.43 $Y=1.4825
Rk84	vdd!#13	vdd!#29	15.829875	$metal1_conn
+ $W=9e-08	$X=3.84 $Y=1.6025
Rk85	vdd!#15	vdd!#30	15.829875	$metal1_conn
+ $W=9e-08	$X=3.43 $Y=1.6025
Rk86	vdd!#16	vdd!#31	31.265997	$metal1_conn
+ $W=9e-08	$X=3.03 $Y=1.59
Rk87	vdd!#17	vdd!#32	31.266727	$metal1_conn
+ $W=9e-08	$X=1.43 $Y=1.59
Rk88	vdd!#19	vdd!#33	31.261982	$metal1_conn
+ $W=9e-08	$X=0.71 $Y=1.5875
Rk89	vdd!#3	vdd!#4	6.818182	$metal1_conn	$W=9e-08
+ $X=8.36 $Y=1.78
Rk90	vdd!#3	vdd!#8	6.250000	$metal1_conn	$W=9e-08
+ $X=6.06 $Y=1.78
Rk91	vdd!#3	vdd!#14	6.250000	$metal1_conn	$W=9e-08
+ $X=3.66 $Y=1.78
Rk92	vdd!#3	vdd!#18	6.250000	$metal1_conn	$W=9e-08
+ $X=1.26 $Y=1.78
Rk94	gnd!#2	gnd!#4	0.201658	$metal1_conn	$W=1.25e-07
+ $X=8.5775 $Y=0.07
Rk95	gnd!#4	gnd!#5	0.363640	$metal1_conn	$W=1.25e-07
+ $X=7.98 $Y=0.07
Rk96	gnd!#5	gnd!#6	0.358461	$metal1_conn	$W=1.25e-07
+ $X=7.27 $Y=0.07
Rk97	gnd!#6	gnd!#7	0.231368	$metal1_conn	$W=1.25e-07
+ $X=6.6775 $Y=0.07
Rk98	gnd!#7	gnd!#8	0.191690	$metal1_conn	$W=1.25e-07
+ $X=6.2675 $Y=0.07
Rk99	gnd!#8	gnd!#9	0.313799	$metal1_conn	$W=1.25e-07
+ $X=5.73 $Y=0.07
Rk100	gnd!#9	gnd!	0.336227	$metal1_conn	$W=1.25e-07
+ $X=5.078 $Y=0.07
Rk101	gnd!	gnd!#10	0.161786	$metal1_conn	$W=1.25e-07
+ $X=4.607 $Y=0.07
Rk102	gnd!#10	gnd!#11	0.383576	$metal1_conn
+ $W=1.25e-07	$X=4.06 $Y=0.07
Rk103	gnd!#11	gnd!#12	0.114438	$metal1_conn
+ $W=1.25e-07	$X=3.53 $Y=0.07
Rk104	gnd!#12	gnd!#13	0.430729	$metal1_conn
+ $W=1.25e-07	$X=2.9975 $Y=0.07
Rk105	gnd!#13	gnd!#14	0.565298	$metal1_conn
+ $W=1.25e-07	$X=1.9975 $Y=0.07
Rk106	gnd!#14	gnd!#15	0.084534	$metal1_conn
+ $W=1.25e-07	$X=1.36 $Y=0.07
Rk107	gnd!#15	gnd!#16	0.273927	$metal1_conn
+ $W=1.25e-07	$X=0.97 $Y=0.07
Rk108	gnd!#16	gnd!#17	75.495598	$metal1_conn
+ $W=9e-08	$X=0.245 $Y=0.295
Rk109	gnd!#2	gnd!#18	75.279869	$metal1_conn	$W=8e-08
+ $X=8.765 $Y=0.295
Rk110	gnd!#5	gnd!#19	75.271111	$metal1_conn	$W=9e-08
+ $X=7.63 $Y=0.295
Rk111	gnd!#6	gnd!#20	75.260887	$metal1_conn	$W=9e-08
+ $X=6.91 $Y=0.295
Rk112	gnd!#7	gnd!#21	75.260887	$metal1_conn	$W=9e-08
+ $X=6.445 $Y=0.295
Rk113	gnd!#9	gnd!#22	75.207230	$metal1_conn	$W=1e-07
+ $X=5.43 $Y=0.2575
Rk114	gnd!#10	gnd!#23	75.207230	$metal1_conn
+ $W=1e-07	$X=4.43 $Y=0.2575
Rk115	gnd!#12	gnd!#24	75.207230	$metal1_conn
+ $W=1e-07	$X=3.43 $Y=0.2575
Rk116	gnd!#13	gnd!#25	75.279869	$metal1_conn
+ $W=8e-08	$X=2.565 $Y=0.295
Rk117	gnd!#14	gnd!#26	75.271111	$metal1_conn
+ $W=9e-08	$X=1.43 $Y=0.295
Rk118	gnd!#16	gnd!#27	75.260887	$metal1_conn
+ $W=9e-08	$X=0.71 $Y=0.295
Rk119	gnd!#3	gnd!#4	5.636364	$metal1_conn	$W=9e-08
+ $X=8.36 $Y=0.07
Rk120	gnd!#3	gnd!#8	5.166667	$metal1_conn	$W=9e-08
+ $X=6.06 $Y=0.07
Rk121	gnd!#3	gnd!#11	5.166667	$metal1_conn	$W=9e-08
+ $X=3.66 $Y=0.07
Rk122	gnd!#3	gnd!#15	5.166667	$metal1_conn	$W=9e-08
+ $X=1.26 $Y=0.07
Rk123	S	S#1	0.306288	$metal1_conn	$W=1e-07
+ $X=9.4695 $Y=0.795
Rk124	S#1	S#2	0.492923	$metal1_conn	$W=8.65e-08
+ $X=8.765 $Y=0.9175
Rk125	S#2	S#3	0.287422	$metal1_conn	$W=9e-08
+ $X=8.5325 $Y=1.04
Rk126	S#3	S#4	75.400574	$metal1_conn	$W=8.25e-08
+ $X=8.3 $Y=0.765
Rk127	S#1	S#5	75.195419	$metal1_conn	$W=9e-08
+ $X=9.23 $Y=0.6425
Rk128	S#2	S#6	31.236206	$metal1_conn	$W=9e-08
+ $X=8.765 $Y=1.175
Rk129	S#3	S#7	31.236206	$metal1_conn	$W=9e-08
+ $X=8.3 $Y=1.175
Rl1	B#1	B#2	74.233528	$poly_conn	$W=3.9e-08
+ $X=1.5325 $Y=1.163
Rl2	B#2	B#3	262.824524	$poly_conn	$W=3.9e-08
+ $X=1.1725 $Y=1.0525
Rl3	B#3	B#4	95.101501	$poly_conn	$W=3.9e-08
+ $X=0.8125 $Y=0.935
Rl4	B#4	B#5	2.766559	$poly_conn	$W=9.4e-08
+ $X=0.79 $Y=0.79
Rl5	B#2	B#6	191.541229	$poly_conn	$W=3.9e-08
+ $X=1.5325 $Y=0.79
Rl6	B#3	B#7	72.310455	$poly_conn	$W=3.9e-08
+ $X=0.8125 $Y=1.16
Rl7	B#4	B#8	88.175659	$poly_conn	$W=3.9e-08
+ $X=0.8125 $Y=0.645
Rl8	XI0/net6	XI0/net6#2	107.406433	$poly_conn
+ $W=3.9e-08	$X=1.9975 $Y=1.1305
Rl9	XI0/net6#2	XI0/net6#3	1.266559	$poly_conn
+ $W=9.4e-08	$X=1.975 $Y=0.96
Rl10	XI0/net6#2	XI0/net6#4	153.560272	$poly_conn
+ $W=3.9e-08	$X=1.9975 $Y=0.73
Rl11	XI0/net14	XI0/net14#2	172.791046	$poly_conn
+ $W=3.9e-08	$X=2.4625 $Y=1.0455
Rl12	XI0/net14#2	XI0/net14#3	2.016559	$poly_conn
+ $W=9.4e-08	$X=2.44 $Y=0.79
Rl13	XI0/net14#2	XI0/net14#4	88.175659	$poly_conn
+ $W=3.9e-08	$X=2.4625 $Y=0.645
Rl14	A#1	A#2	269.230743	$poly_conn	$W=3.9e-08
+ $X=2.9275 $Y=0.9005
Rl15	A#2	A#3	1126.488770	$poly_conn	$W=3.9e-08
+ $X=1.638 $Y=0.2325
Rl16	A#3	A#4	170.867966	$poly_conn	$W=3.9e-08
+ $X=0.3475 $Y=0.752
Rl17	A#4	A#5	1.266559	$poly_conn	$W=9.4e-08
+ $X=0.325 $Y=1.005
Rl18	A#4	A#6	88.175659	$poly_conn	$W=3.9e-08
+ $X=0.3475 $Y=1.15
Rl19	net3	net3#2	55.483356	$poly_conn	$W=3.9e-08
+ $X=3.5325 $Y=0.983
Rl20	net3#2	net3#3	3.516560	$poly_conn	$W=9.4e-08
+ $X=3.51 $Y=0.88
Rl21	net3#2	net3#4	151.637192	$poly_conn	$W=3.9e-08
+ $X=3.5325 $Y=0.6525
Rl22	Cin#1	Cin#2	2.021347	$poly_conn	$W=9.4e-08
+ $X=3.76 $Y=0.91
Rl23	Cin#2	Cin#3	183.895157	$poly_conn	$W=3.9e-08
+ $X=3.7375 $Y=0.7725
Rl24	Cin#2	Cin#4	43.944893	$poly_conn	$W=3.9e-08
+ $X=3.7375 $Y=0.9975
Rl25	B#9	B#10	55.483356	$poly_conn	$W=3.9e-08
+ $X=4.5325 $Y=0.983
Rl26	B#10	B#11	3.516560	$poly_conn	$W=9.4e-08
+ $X=4.51 $Y=0.88
Rl27	B#10	B#12	151.637192	$poly_conn	$W=3.9e-08
+ $X=4.5325 $Y=0.6525
Rl28	A#7	A#8	2.021347	$poly_conn	$W=9.4e-08
+ $X=4.76 $Y=0.91
Rl29	A#8	A#9	183.895157	$poly_conn	$W=3.9e-08
+ $X=4.7375 $Y=0.7725
Rl30	A#8	A#10	43.944893	$poly_conn	$W=3.9e-08
+ $X=4.7375 $Y=0.9975
Rl31	net10	net10#2	55.483356	$poly_conn	$W=3.9e-08
+ $X=5.5325 $Y=0.983
Rl32	net10#2	net10#3	3.516560	$poly_conn
+ $W=9.4e-08	$X=5.51 $Y=0.88
Rl33	net10#2	net10#4	151.637192	$poly_conn
+ $W=3.9e-08	$X=5.5325 $Y=0.6525
Rl34	net9	net9#2	2.021347	$poly_conn	$W=9.4e-08
+ $X=5.76 $Y=0.91
Rl35	net9#2	net9#3	183.895157	$poly_conn	$W=3.9e-08
+ $X=5.7375 $Y=0.7725
Rl36	net9#2	net9#4	43.944893	$poly_conn	$W=3.9e-08
+ $X=5.7375 $Y=0.9975
Rl37	net3#5	net3#6	74.233528	$poly_conn	$W=3.9e-08
+ $X=7.7325 $Y=1.163
Rl38	net3#6	net3#7	262.824524	$poly_conn	$W=3.9e-08
+ $X=7.3725 $Y=1.0525
Rl39	net3#7	net3#8	95.101501	$poly_conn	$W=3.9e-08
+ $X=7.0125 $Y=0.935
Rl40	net3#8	net3#9	2.766559	$poly_conn	$W=9.4e-08
+ $X=6.99 $Y=0.79
Rl41	net3#6	net3#10	191.541229	$poly_conn	$W=3.9e-08
+ $X=7.7325 $Y=0.79
Rl42	net3#7	net3#11	72.310455	$poly_conn	$W=3.9e-08
+ $X=7.0125 $Y=1.16
Rl43	net3#8	net3#12	88.175659	$poly_conn	$W=3.9e-08
+ $X=7.0125 $Y=0.645
Rl44	XI1/net14	XI1/net14#2	107.406433	$poly_conn
+ $W=3.9e-08	$X=8.1975 $Y=1.1305
Rl45	XI1/net14#2	XI1/net14#3	1.266559	$poly_conn
+ $W=9.4e-08	$X=8.175 $Y=0.96
Rl46	XI1/net14#2	XI1/net14#4	153.560272	$poly_conn
+ $W=3.9e-08	$X=8.1975 $Y=0.73
Rl47	XI1/net6	XI1/net6#2	172.791046	$poly_conn
+ $W=3.9e-08	$X=8.6625 $Y=1.0455
Rl48	XI1/net6#2	XI1/net6#3	2.016559	$poly_conn
+ $W=9.4e-08	$X=8.64 $Y=0.79
Rl49	XI1/net6#2	XI1/net6#4	88.175659	$poly_conn
+ $W=3.9e-08	$X=8.6625 $Y=0.645
Rl50	Cin#5	Cin#6	269.230743	$poly_conn	$W=3.9e-08
+ $X=9.1275 $Y=0.9005
Rl51	Cin#6	Cin#7	1126.488770	$poly_conn	$W=3.9e-08
+ $X=7.838 $Y=0.2325
Rl52	Cin#7	Cin#8	170.867966	$poly_conn	$W=3.9e-08
+ $X=6.5475 $Y=0.752
Rl53	Cin#8	Cin#9	1.266559	$poly_conn	$W=9.4e-08
+ $X=6.525 $Y=1.005
Rl54	Cin#8	Cin#10	88.175659	$poly_conn	$W=3.9e-08
+ $X=6.5475 $Y=1.15
*
*       CAPACITOR CARDS
*
*
C1	A	Cin	5.36724e-17	$X=1.332 $Y=1.581
C2	net9#15	Cin#19	6.71293e-18	$X=4.251 $Y=0.8995
C3	A	vdd!	3.14223e-17	$X=1.787 $Y=1.4955
C4	XI0/net9	net3#18	3.44295e-18	$X=1.8345 $Y=0.523
C5	vdd!#29	Cin#4	5.4103e-18	$X=3.7575 $Y=1.303
C6	net3#15	XI0/net4#7	3.91347e-18	$X=2.843 $Y=1.028
C7	Cout	S	4.4605e-18	$X=9.5305 $Y=0.7535
C8	Cin	vdd!	4.44884e-17	$X=1.169 $Y=1.637
C9	Cin#1	vdd!#29	1.54804e-17	$X=3.8245 $Y=0.964
C10	XI1/net14#5	gnd!#6	1.08949e-18	$X=6.9575 $Y=0.637
C11	net3#25	net3#19	3.27703e-18	$X=3.2295 $Y=0.6615
C12	XI1/net1	XI1/net6#3	6.98918e-18	$X=8.5825 $Y=0.6745
C13	XI1/net9#2	XI1/net6#5	1.37751e-18	$X=7.707 $Y=0.5825
C14	gnd!#12	net3#14	1.62646e-18	$X=3.2315 $Y=0.6245
C15	net9#7	Cin#4	4.22581e-18	$X=3.7165 $Y=1.293
C16	net3#20	A#2	2.33408e-18	$X=2.835 $Y=0.442
C17	A#4	B#4	1.74424e-18	$X=0.616 $Y=0.857
C18	XI0/net14#5	gnd!#3	3.21572e-18	$X=1.38 $Y=0.766
C19	XI0/net6#2	XI0/net14#2	3.81724e-18	$X=2.2295 $Y=0.8875
C20	net10#7	vdd!#27	2.1577e-17	$X=4.7345 $Y=1.164
C21	net10#2	net9#3	6.33761e-18	$X=5.5755 $Y=0.673
C22	vdd!#30	Cin#4	1.98949e-18	$X=3.6715 $Y=1.303
C23	XI1/net14#9	S#3	1.31053e-18	$X=8.108 $Y=0.9655
C24	A	B#17	3.81948e-18	$X=0.7965 $Y=0.8265
C25	net9#7	Cin#1	1.24837e-17	$X=3.7985 $Y=0.952
C26	gnd!#5	gnd!#3	1.51402e-17	$X=7.48 $Y=0.147
C27	XI0/net9#3	A#2	2.47452e-18	$X=2.689 $Y=0.439
C28	Cout#1	Cin#7	1.43405e-18	$X=6.275 $Y=0.599
C29	gnd!#14	A#3	7.71721e-18	$X=1.355 $Y=0.153
C30	A	XI0/net4#8	4.87835e-18	$X=2.6155 $Y=1.5205
C31	A	XI0/net4#6	5.55133e-18	$X=2.24 $Y=1.519
C32	A	XI0/net14#10	3.06008e-18	$X=2.029 $Y=0.948
C33	A	XI0/net4#4	4.94042e-18	$X=1.863 $Y=1.5195
C34	A	XI0/net6#9	3.71326e-18	$X=1.6085 $Y=1.0695
C35	A	XI0/net4#2	3.17229e-18	$X=1.6405 $Y=1.5285
C36	A	XI0/net14#5	3.26355e-18	$X=1.3485 $Y=0.925
C37	A	XI0/net6#5	5.20132e-18	$X=0.956 $Y=1.058
C38	Cout#2	net9#2	7.78607e-18	$X=5.738 $Y=0.759
C39	net9	net9#2	5.32267e-18	$X=5.8 $Y=0.8645
C40	B	XI0/net14#3	1.20318e-18	$X=2.3205 $Y=0.7375
C41	A	net3#21	1.23802e-18	$X=2.4015 $Y=1.3765
C42	net10#3	vdd!#10	4.09037e-18	$X=5.4025 $Y=1.1895
C43	Cin#17	gnd!#7	1.7735e-18	$X=6.392 $Y=0.454
C44	A	XI0/net4	5.95692e-19	$X=1.6395 $Y=1.3845
C45	A	vdd!#32	1.21782e-18	$X=1.482 $Y=1.413
C46	A	XI0/net14#8	6.17641e-19	$X=1.0665 $Y=1.3515
C47	vdd!#29	net3	1.84552e-18	$X=3.598 $Y=1.2975
C48	A	vdd!#33	1.69358e-18	$X=0.8965 $Y=1.409
C49	A	XI0/net6#8	1.01537e-18	$X=0.678 $Y=1.3665
C50	A	vdd!#20	5.31334e-18	$X=0.667 $Y=1.465
C51	XI1/net4#6	vdd!#3	2.09669e-17	$X=8.441 $Y=1.5325
C52	Cout	Cin#6	1.2091e-18	$X=8.583 $Y=0.2925
C53	Cin#5	vdd!	2.16623e-17	$X=9.108 $Y=1.246
C54	XI1/net6	vdd!	7.78299e-18	$X=8.6485 $Y=1.318
C55	B	B#17	9.67043e-18	$X=0.8435 $Y=0.5235
C56	A	XI0/net9#3	4.87605e-19	$X=2.703 $Y=0.618
C57	A	gnd!#25	1.0053e-18	$X=2.4555 $Y=0.5795
C58	A	XI0/net1	1.01874e-18	$X=2.2555 $Y=0.6185
C59	XI1/net14	vdd!	4.85547e-18	$X=8.187 $Y=1.3605
C60	B#19	gnd!#22	1.20898e-18	$X=5.295 $Y=0.4385
C61	net9#7	net3	3.8805e-18	$X=3.5525 $Y=1.287
C62	vdd!#28	vdd!#27	6.62999e-18	$X=4.6345 $Y=1.206
C63	net3#5	vdd!	5.06265e-18	$X=7.724 $Y=1.376
C64	XI0/net9	XI0/net1#2	8.61407e-18	$X=1.7345 $Y=0.4845
C65	Cin#15	Cin#19	3.03355e-18	$X=4.009 $Y=1.0735
C66	net3#11	vdd!	6.96109e-18	$X=7.0055 $Y=1.372
C67	gnd!#22	Cout#4	8.87741e-18	$X=5.582 $Y=0.4155
C68	Cin#10	vdd!	7.72665e-18	$X=6.542 $Y=1.367
C69	gnd!#12	net3#20	5.0177e-18	$X=3.075 $Y=0.3825
C70	XI0/net1	A#2	5.73809e-18	$X=2.3325 $Y=0.375
C71	Cin#9	Cin#8	2.85206e-18	$X=6.517 $Y=0.973
C72	net9#4	vdd!	4.67527e-18	$X=5.7345 $Y=1.186
C73	XI0/net14#5	gnd!#14	1.06234e-18	$X=1.449 $Y=0.5045
C74	gnd!#6	gnd!#3	1.15718e-17	$X=6.814 $Y=0.1475
C75	net10	vdd!	4.77207e-18	$X=5.53 $Y=1.179
C76	B	XI0/net9#4	1.76649e-17	$X=2.4455 $Y=0.3385
C77	vdd!#30	net3	5.08939e-18	$X=3.5105 $Y=1.2975
C78	A#10	vdd!	5.30987e-18	$X=4.7365 $Y=1.186
C79	gnd!#16	A#3	1.34262e-17	$X=0.862 $Y=0.193
C80	B	XI0/net14#10	6.79144e-18	$X=2.0215 $Y=0.663
C81	B	XI0/net6#9	3.61027e-18	$X=1.6175 $Y=0.803
C82	B#9	vdd!	4.79075e-18	$X=4.532 $Y=1.179
C83	B	XI0/net9#2	1.2614e-17	$X=1.7625 $Y=0.3375
C84	net3#3	net9#7	7.9989e-18	$X=3.482 $Y=0.9535
C85	B	XI0/net14#5	1.21514e-17	$X=1.366 $Y=0.6805
C86	A#19	Cin	4.63757e-18	$X=0.463 $Y=1.124
C87	Cin#4	vdd!	5.16829e-18	$X=3.7405 $Y=1.306
C88	B	XI0/net6#5	5.87034e-18	$X=0.9865 $Y=0.819
C89	Cout	XI1/net14#3	1.18032e-18	$X=8.2225 $Y=0.861
C90	B	gnd!#3	4.67742e-18	$X=2.0365 $Y=0.2755
C91	net3	vdd!	4.73419e-18	$X=3.5365 $Y=1.299
C92	A#1	vdd!	1.19599e-17	$X=2.9345 $Y=1.246
C93	XI0/net14	vdd!	7.78299e-18	$X=2.4695 $Y=1.318
C94	net3#18	A#2	1.805e-18	$X=2.1465 $Y=0.451
C95	vdd!#20	vdd!#3	5.73245e-18	$X=0.5115 $Y=1.4715
C96	XI0/net6	vdd!	4.85547e-18	$X=2.0045 $Y=1.3605
C97	B#17	Cin	3.0498e-18	$X=0.6975 $Y=0.946
C98	Cin	A#15	1.92069e-18	$X=0.242 $Y=0.987
C99	net3#20	net3#19	1.03464e-17	$X=3.16 $Y=0.602
C100	B#19	net10#8	2.11323e-18	$X=4.6815 $Y=0.4855
C101	B#1	vdd!	6.43335e-18	$X=1.54 $Y=1.376
C102	XI0/net9#3	XI0/net14#4	1.71289e-18	$X=2.581 $Y=0.494
C103	XI1/net9#4	gnd!#18	1.53785e-17	$X=8.7995 $Y=0.42
C104	B#7	vdd!	6.89935e-18	$X=0.822 $Y=1.372
C105	A#6	vdd!	1.03721e-17	$X=0.3585 $Y=1.367
C106	B#17	B#6	1.45728e-18	$X=1.3135 $Y=0.57
C107	XI1/net14#9	net3#6	5.16775e-18	$X=7.7505 $Y=0.97
C108	net3#3	vdd!#30	1.28419e-17	$X=3.441 $Y=0.9725
C109	A#8	net10#3	1.8352e-18	$X=4.956 $Y=0.83
C110	XI1/net14#6	Cin#7	9.43352e-19	$X=6.81 $Y=0.7255
C111	XI1/net6#10	vdd!#3	1.14264e-18	$X=8.1805 $Y=0.8305
C112	XI1/net1#2	XI1/net14#3	5.62903e-18	$X=8.102 $Y=0.746
C113	XI0/net1#2	A#2	4.81805e-18	$X=2.0265 $Y=0.375
C114	vdd!#28	net10#7	2.1577e-17	$X=4.534 $Y=1.164
C115	Cin#7	vdd!	1.64406e-18	$X=7.1755 $Y=0.246
C116	net9#7	A#1	9.88669e-19	$X=3.0785 $Y=1.244
C117	gnd!#25	XI0/net14#4	2.45732e-18	$X=2.4915 $Y=0.477
C118	XI0/net6#6	XI0/net14#8	2.39735e-18	$X=0.6145 $Y=1.067
C119	gnd!#7	gnd!#3	6.90068e-18	$X=6.3895 $Y=0.1485
C120	gnd!#3	Cin#6	7.17825e-18	$X=8.2905 $Y=0.224
C121	Cin	XI0/net4#4	9.96728e-18	$X=1.7215 $Y=1.549
C122	Cin	XI0/net6#9	5.71641e-18	$X=1.448 $Y=1.1495
C123	gnd!#6	net3#9	1.2553e-18	$X=6.929 $Y=0.6415
C124	gnd!#5	Cin#6	1.29058e-18	$X=8.066 $Y=0.193
C125	vdd!#7	vdd!#6	3.55994e-18	$X=6.6395 $Y=1.7135
C126	Cin	XI0/net4#2	6.35553e-18	$X=1.552 $Y=1.549
C127	Cin	XI0/net6#5	7.12946e-18	$X=0.866 $Y=1.1315
C128	gnd!#7	Cin#14	1.89487e-18	$X=6.3605 $Y=0.835
C129	vdd!#30	A#1	3.15788e-18	$X=3.0455 $Y=1.2565
C130	Cout	XI1/net9#4	1.45496e-17	$X=8.85 $Y=0.365
C131	S#6	vdd!#3	5.88102e-18	$X=8.632 $Y=1.364
C132	Cout#2	net9#3	2.83548e-18	$X=5.6765 $Y=0.5545
C133	net10#8	Cout#4	1.2664e-18	$X=5.234 $Y=0.4425
C134	XI1/net9#4	XI1/net1	3.74283e-18	$X=8.696 $Y=0.408
C135	B	XI0/net14#7	2.5559e-18	$X=1.0125 $Y=0.483
C136	Cout	XI1/net6#10	1.12877e-17	$X=8.4665 $Y=0.669
C137	XI0/net14#10	net3#25	1.06796e-18	$X=2.9805 $Y=0.704
C138	Cout	XI1/net14#9	1.53018e-18	$X=8.0695 $Y=0.7995
C139	B	XI0/net14#6	6.95116e-19	$X=1.0285 $Y=0.7655
C140	Cout	XI1/net9#2	1.62879e-17	$X=8.2105 $Y=0.364
C141	gnd!#3	XI1/net1	1.89957e-17	$X=8.466 $Y=0.4395
C142	XI0/net1	XI0/net14#4	2.68088e-18	$X=2.4385 $Y=0.478
C143	B	net3#15	1.12572e-18	$X=2.6925 $Y=0.7245
C144	B	net3#16	3.49905e-18	$X=2.4125 $Y=0.849
C145	XI1/net6#6	Cin#7	1.65478e-18	$X=7.1395 $Y=0.667
C146	vdd!#31	A#1	3.54559e-18	$X=2.9625 $Y=1.2995
C147	A#3	vdd!	1.64406e-18	$X=1.044 $Y=0.246
C148	net9	vdd!#3	1.24229e-18	$X=5.8425 $Y=0.923
C149	XI1/net14#3	vdd!	3.91478e-18	$X=8.0885 $Y=0.962
C150	XI1/net14#8	vdd!#6	2.01137e-18	$X=6.7525 $Y=1.491
C151	XI1/net6#5	XI1/net14#5	2.23269e-17	$X=7.222 $Y=0.8765
C152	net10#3	net9#2	8.93978e-19	$X=5.617 $Y=0.83
C153	XI0/net4#7	A#1	1.9549e-18	$X=2.8875 $Y=1.2915
C154	net9#13	gnd!#3	1.87728e-18	$X=6.0395 $Y=0.9045
C155	Cin#9	vdd!	3.60395e-18	$X=6.4715 $Y=1.006
C156	B#19	gnd!#23	4.45269e-18	$X=4.4205 $Y=0.4385
C157	net9#11	net10#8	9.8713e-19	$X=4.31 $Y=0.5645
C158	net3#18	XI0/net14#4	1.62546e-18	$X=2.36 $Y=0.5025
C159	gnd!#10	gnd!#9	1.54734e-18	$X=4.782 $Y=0.0985
C160	net9	vdd!	1.13321e-18	$X=5.8555 $Y=0.9115
C161	net10#3	vdd!	2.82318e-18	$X=5.379 $Y=0.859
C162	Cout#5	gnd!#5	4.51566e-18	$X=7.124 $Y=0.2995
C163	Cin	XI0/net6#8	1.01813e-18	$X=0.61 $Y=1.4145
C164	Cin	vdd!#20	4.45504e-18	$X=0.568 $Y=1.5235
C165	net9#13	net9	2.95567e-18	$X=5.9685 $Y=0.912
C166	Cin	vdd!#3	5.29155e-18	$X=1.4305 $Y=1.652
C167	B#11	vdd!	1.65452e-18	$X=4.453 $Y=0.8815
C168	XI1/net4#4	vdd!#3	1.74107e-17	$X=8.0065 $Y=1.531
C169	net3#21	A#1	1.6121e-18	$X=2.7905 $Y=1.284
C170	gnd!#13	net3#15	2.23563e-18	$X=2.7945 $Y=0.6655
C171	net3#3	vdd!	1.76576e-18	$X=3.448 $Y=0.882
C172	B	gnd!#13	5.18647e-18	$X=2.2285 $Y=0.21
C173	Cout	gnd!#3	1.76109e-18	$X=8.449 $Y=0.372
C174	B	gnd!#14	4.10589e-18	$X=1.724 $Y=0.139
C175	Cout	vdd!#21	1.61449e-18	$X=9.109 $Y=1.1365
C176	Cin#11	vdd!#13	3.12784e-18	$X=4.021 $Y=1.1075
C177	B	gnd!#16	4.50597e-18	$X=1.02 $Y=0.197
C178	XI0/net6#3	vdd!	3.87064e-18	$X=1.9165 $Y=0.962
C179	A	Cin#19	2.48154e-17	$X=2.7345 $Y=1.487
C180	XI0/net1#2	XI0/net14#4	1.77495e-19	$X=2.3285 $Y=0.478
C181	net3#29	Cin#19	4.71528e-18	$X=3.646 $Y=0.951
C182	A#5	vdd!	4.98155e-18	$X=0.2905 $Y=1.006
C183	XI0/net9#4	gnd!#24	4.42503e-18	$X=3.1925 $Y=0.3775
C184	net3#31	vdd!	1.41025e-18	$X=6.6095 $Y=0.6345
C185	vdd!#3	Cin#4	1.76589e-18	$X=3.7555 $Y=1.3135
C186	net9#17	vdd!	3.16621e-18	$X=6.002 $Y=0.9265
C187	B#19	net9#8	1.95751e-18	$X=3.8105 $Y=0.4855
C188	vdd!#5	vdd!#3	1.506e-17	$X=7.473 $Y=1.7185
C189	Cin#15	vdd!#13	2.00893e-18	$X=4.0055 $Y=1.405
C190	XI1/net6#3	S#1	8.10994e-19	$X=8.8225 $Y=0.769
C191	A#21	vdd!	3.04272e-17	$X=4.9955 $Y=1.0705
C192	XI1/net14#5	net3#24	1.83061e-18	$X=6.853 $Y=0.788
C193	Cout#5	gnd!#6	4.01721e-18	$X=6.671 $Y=0.284
C194	net9#13	net10#3	6.45655e-19	$X=5.87 $Y=0.8975
C195	B#10	A#9	6.15783e-18	$X=4.5755 $Y=0.673
C196	A#19	vdd!	1.34383e-17	$X=0.224 $Y=0.898
C197	XI0/net9	XI0/net14#4	2.97706e-19	$X=2.1895 $Y=0.4935
C198	net3#16	XI0/net4#5	4.01179e-18	$X=2.4675 $Y=1.1585
C199	net9#17	vdd!#25	1.59031e-18	$X=5.8905 $Y=1.1205
C200	gnd!#26	XI0/net9	1.23671e-17	$X=1.5365 $Y=0.4825
C201	net3#22	vdd!#17	5.90294e-18	$X=2.0145 $Y=1.487
C202	Cout#5	gnd!#3	3.43463e-18	$X=5.9775 $Y=0.5445
C203	XI1/net14#8	vdd!#7	5.2369e-18	$X=6.5465 $Y=1.521
C204	Cin#17	vdd!	2.41189e-17	$X=6.2285 $Y=1.2255
C205	XI0/net1	XI0/net6#4	1.13276e-18	$X=2.1005 $Y=0.5065
C206	B	B#2	1.06009e-18	$X=1.557 $Y=0.882
C207	S#2	vdd!#3	1.4189e-18	$X=8.659 $Y=0.9905
C208	B	B#3	1.06628e-18	$X=1.083 $Y=0.967
C209	XI0/net4#7	XI0/net14	6.37168e-19	$X=2.589 $Y=1.3325
C210	A#19	gnd!#17	1.23692e-18	$X=0.2145 $Y=0.64
C211	gnd!#9	gnd!#3	1.36571e-17	$X=5.399 $Y=0.129
C212	gnd!#3	XI1/net14#4	1.47518e-18	$X=8.1615 $Y=0.5245
C213	XI1/net6#3	S#2	2.62181e-17	$X=8.652 $Y=0.852
C214	XI1/net6	Cin#5	5.18492e-18	$X=8.867 $Y=1.2855
C215	A#7	A#8	4.41643e-18	$X=4.7895 $Y=0.8745
C216	net3#17	B#2	1.81364e-18	$X=1.7955 $Y=0.9725
C217	net9#7	net10#7	4.5049e-19	$X=4.286 $Y=1.1635
C218	gnd!#3	net9#6	3.81708e-18	$X=3.7595 $Y=0.6765
C219	vdd!#29	vdd!#28	8.53656e-18	$X=4.21 $Y=1.2395
C220	Cin#15	vdd!	2.4853e-18	$X=4.0145 $Y=0.999
C221	Cout#5	net10#3	7.2535e-19	$X=5.541 $Y=0.7985
C222	net3#21	XI0/net14	3.43804e-18	$X=2.493 $Y=1.3275
C223	Cout#5	gnd!#7	3.08527e-18	$X=6.365 $Y=0.2565
C224	net3#18	XI0/net6#4	4.12607e-18	$X=2.0285 $Y=0.5335
C225	Cout	S#5	2.49983e-18	$X=9.1525 $Y=0.494
C226	A#15	vdd!	1.52087e-18	$X=0.147 $Y=0.906
C227	Cout	XI1/net9#3	1.28876e-18	$X=8.989 $Y=0.491
C228	gnd!#3	XI1/net1#2	2.2976e-17	$X=8.013 $Y=0.4395
C229	net9#17	Cout#3	2.75945e-18	$X=5.7495 $Y=1.061
C230	Cout	gnd!#18	1.07678e-18	$X=8.7625 $Y=0.4455
C231	XI1/net4#8	vdd!	9.15467e-18	$X=8.9355 $Y=1.5245
C232	Cout	S#4	6.2715e-19	$X=8.388 $Y=0.515
C233	XI1/net14	XI1/net6	3.96681e-18	$X=8.4095 $Y=1.3405
C234	XI1/net4#6	vdd!	7.90222e-18	$X=8.5325 $Y=1.5245
C235	Cout	XI1/net9	5.66993e-19	$X=7.9805 $Y=0.49
C236	XI0/net4#5	XI0/net14	1.9549e-18	$X=2.428 $Y=1.3325
C237	XI1/net4#4	vdd!	5.88427e-18	$X=8.0745 $Y=1.5245
C238	XI1/net14#9	vdd!	6.44063e-19	$X=7.761 $Y=0.964
C239	net9#5	B#12	1.29759e-18	$X=4.333 $Y=0.533
C240	A#17	net10#3	2.27912e-18	$X=5.1085 $Y=0.894
C241	S#7	vdd!#3	5.90637e-18	$X=8.182 $Y=1.364
C242	XI0/net1#2	XI0/net6#4	4.2573e-18	$X=1.969 $Y=0.5065
C243	vdd!#6	vdd!#3	1.09624e-17	$X=6.8095 $Y=1.7165
C244	XI1/net4#2	vdd!	5.96264e-18	$X=7.822 $Y=1.533
C245	Cin	vdd!#17	5.82743e-18	$X=1.532 $Y=1.721
C246	XI1/net1	XI1/net6#10	5.08499e-18	$X=8.4695 $Y=0.585
C247	net3#22	XI0/net14	1.68096e-18	$X=2.345 $Y=1.3275
C248	gnd!#16	B#14	2.52072e-18	$X=0.6095 $Y=0.6435
C249	Cin	vdd!#19	7.91641e-18	$X=0.8405 $Y=1.688
C250	B#19	gnd!#24	2.43513e-18	$X=3.546 $Y=0.4385
C251	net3#5	XI1/net14	4.02681e-18	$X=7.9555 $Y=1.368
C252	net3#17	XI0/net4#5	2.8217e-18	$X=2.2165 $Y=1.1425
C253	gnd!#10	gnd!#3	8.31098e-18	$X=4.253 $Y=0.0695
C254	XI1/net14#5	vdd!	6.15526e-19	$X=6.9725 $Y=0.9635
C255	Cin#14	vdd!	6.06233e-18	$X=6.33 $Y=1.0505
C256	net10#8	gnd!#22	3.0168e-18	$X=5.0895 $Y=0.4155
C257	net9#9	vdd!	3.19991e-18	$X=6.0855 $Y=0.9155
C258	XI0/net4#5	XI0/net14#3	4.18632e-19	$X=2.3825 $Y=0.9815
C259	gnd!#20	net3#9	5.45342e-18	$X=6.926 $Y=0.645
C260	gnd!#13	net3#16	1.28045e-18	$X=2.5645 $Y=0.7645
C261	net10#6	A#9	2.52849e-18	$X=4.67 $Y=0.54
C262	A#13	vdd!	3.49781e-18	$X=5.0535 $Y=0.911
C263	S#3	vdd!#3	2.47077e-18	$X=8.22 $Y=0.9875
C264	XI1/net9#4	XI1/net6#3	1.28674e-18	$X=8.669 $Y=0.671
C265	XI0/net14#5	B#2	1.01327e-18	$X=1.436 $Y=0.9085
C266	A#19	XI0/net6#6	6.04336e-19	$X=0.3635 $Y=0.9165
C267	B#16	vdd!	1.61112e-18	$X=4.3255 $Y=0.8235
C268	B#19	net10#3	4.35173e-19	$X=5.1695 $Y=0.839
C269	XI0/net14#7	XI0/net9	1.38562e-18	$X=1.2685 $Y=0.509
C270	vdd!#32	B#2	1.79373e-18	$X=1.4955 $Y=1.131
C271	vdd!#19	vdd!#17	1.96902e-18	$X=1.1915 $Y=1.7415
C272	Cin#11	vdd!	3.16357e-18	$X=4.028 $Y=0.9155
C273	net3#11	net3#5	1.57975e-18	$X=7.371 $Y=1.3735
C274	A#17	A#7	2.67331e-18	$X=4.904 $Y=0.9095
C275	net3#31	net9#17	3.51922e-17	$X=6.2945 $Y=0.786
C276	Cin#2	B#11	1.49463e-18	$X=4.111 $Y=0.8495
C277	XI0/net4#8	vdd!	4.8631e-18	$X=2.766 $Y=1.5245
C278	B#19	net3#20	1.21626e-18	$X=3.186 $Y=0.5455
C279	XI0/net4#6	vdd!	5.97885e-18	$X=2.376 $Y=1.5245
C280	XI1/net6#10	S#4	8.81334e-18	$X=8.306 $Y=0.629
C281	XI1/net4#6	XI1/net6#3	1.1973e-18	$X=8.5815 $Y=1.0185
C282	XI0/net4#4	vdd!	3.79963e-18	$X=1.911 $Y=1.5245
C283	XI0/net4#5	XI0/net6	6.37168e-19	$X=2.1105 $Y=1.36
C284	B#19	gnd!#3	4.45567e-18	$X=4.376 $Y=0.702
C285	net3#18	B#6	1.1097e-18	$X=1.734 $Y=0.5535
C286	Cin#10	net3#11	3.47e-18	$X=6.782 $Y=1.3695
C287	XI0/net4#2	vdd!	3.95536e-18	$X=1.646 $Y=1.533
C288	Cin#19	vdd!#10	2.58374e-18	$X=5.1395 $Y=1.6235
C289	B#11	B#10	1.97797e-18	$X=4.502 $Y=0.8405
C290	vdd!#7	vdd!#3	6.76724e-18	$X=6.3875 $Y=1.7155
C291	XI0/net6#5	vdd!	1.28735e-18	$X=0.818 $Y=0.9635
C292	net3#31	A#21	1.18914e-18	$X=5.891 $Y=0.8165
C293	net3#22	XI0/net6	3.12068e-18	$X=2.0245 $Y=1.357
C294	gnd!#6	XI1/net6#7	4.95541e-18	$X=7.0565 $Y=0.415
C295	A#12	vdd!	8.59451e-18	$X=0.15 $Y=0.919
C296	XI0/net9#4	gnd!#25	1.54073e-17	$X=2.5995 $Y=0.42
C297	S#1	Cin#6	7.45319e-18	$X=8.988 $Y=0.5735
C298	vdd!#21	vdd!	1.22968e-17	$X=9.191 $Y=1.3955
C299	net9#4	Cin#10	1.14646e-18	$X=6.113 $Y=1.2695
C300	S#6	vdd!	1.35361e-18	$X=8.7305 $Y=1.3515
C301	XI0/net4#3	XI0/net6	1.9549e-18	$X=1.9665 $Y=1.36
C302	XI1/net6#10	XI1/net1#2	1.86352e-18	$X=8.1905 $Y=0.585
C303	net9#6	Cin#3	3.24344e-18	$X=3.676 $Y=0.5535
C304	S#7	vdd!	2.29847e-18	$X=8.2685 $Y=1.3515
C305	net9#7	vdd!#29	3.72055e-17	$X=3.74 $Y=1.2705
C306	XI1/net9#3	S#5	1.81086e-17	$X=9.1265 $Y=0.5105
C307	S#2	Cin#6	2.10792e-18	$X=8.6675 $Y=0.726
C308	net3#18	XI0/net14#2	1.75564e-18	$X=2.3415 $Y=0.746
C309	A#19	XI0/net14#6	9.26932e-19	$X=0.682 $Y=0.8585
C310	XI1/net14#3	S#3	2.43366e-17	$X=8.1965 $Y=0.964
C311	XI1/net4#7	vdd!#21	1.5655e-17	$X=9.119 $Y=1.3765
C312	net3#16	XI0/net6#2	6.72132e-19	$X=2.163 $Y=0.941
C313	net3#31	net9#15	1.30009e-17	$X=5.25 $Y=0.6305
C314	XI1/net6#8	vdd!	4.5121e-18	$X=7.09 $Y=1.3175
C315	A#21	net9#17	1.5312e-17	$X=5.6315 $Y=0.969
C316	XI0/net4	XI0/net6	6.4558e-19	$X=1.8835 $Y=1.3605
C317	XI1/net9#3	S#1	9.42386e-18	$X=9.113 $Y=0.6025
C318	XI0/net9	B#6	3.33411e-18	$X=1.572 $Y=0.5375
C319	vdd!#23	vdd!	1.81849e-18	$X=6.898 $Y=1.391
C320	net9#11	gnd!#3	1.28382e-18	$X=4.043 $Y=0.6375
C321	XI0/net14#7	gnd!#26	3.47347e-18	$X=1.159 $Y=0.484
C322	net10	net9#4	1.18415e-17	$X=5.636 $Y=1.182
C323	XI1/net14#8	vdd!	1.71497e-18	$X=6.63 $Y=1.339
C324	S#3	Cin#6	5.46847e-19	$X=8.3495 $Y=0.7525
C325	B#17	XI0/net14#5	6.41139e-18	$X=0.9445 $Y=0.7135
C326	vdd!#24	vdd!	1.86182e-18	$X=6.4365 $Y=1.391
C327	net3#16	net3#14	2.24113e-18	$X=2.982 $Y=0.887
C328	XI0/net6#5	gnd!#16	1.09701e-18	$X=0.759 $Y=0.6545
C329	vdd!#25	vdd!	3.55915e-18	$X=5.825 $Y=1.2085
C330	gnd!#12	gnd!#3	7.70373e-18	$X=3.2625 $Y=0.0695
C331	XI1/net6#10	XI1/net14#3	3.03439e-18	$X=8.176 $Y=0.904
C332	Cout#3	vdd!	9.53893e-19	$X=5.6265 $Y=1.125
C333	vdd!#26	vdd!	4.55673e-18	$X=5.4285 $Y=1.2085
C334	XI0/net9#4	XI0/net1	3.62827e-18	$X=2.496 $Y=0.408
C335	vdd!#27	vdd!	4.20474e-18	$X=4.8335 $Y=1.2085
C336	net10#7	vdd!	3.26157e-18	$X=4.635 $Y=1.125
C337	XI1/net6#10	XI1/net9	1.00891e-18	$X=7.978 $Y=0.5915
C338	gnd!#26	B#6	2.9971e-18	$X=1.4935 $Y=0.5185
C339	vdd!#28	vdd!	3.92955e-18	$X=4.4365 $Y=1.2085
C340	A#10	net10	8.48733e-19	$X=5.127 $Y=1.182
C341	Cout	S#1	3.34207e-18	$X=9.1345 $Y=0.663
C342	net9#7	vdd!	1.62803e-18	$X=3.651 $Y=1.2465
C343	net3#19	net3#4	1.43832e-18	$X=3.367 $Y=0.559
C344	Cout	S#2	2.25223e-18	$X=8.7675 $Y=0.844
C345	vdd!#22	net3#6	1.79373e-18	$X=7.6955 $Y=1.131
C346	Cout	S#3	8.04145e-19	$X=8.3915 $Y=0.86
C347	Cin#19	vdd!#3	2.51227e-18	$X=4.1335 $Y=1.525
C348	vdd!#9	vdd!#7	2.52383e-18	$X=6.1225 $Y=1.6855
C349	XI1/net14#3	XI1/net4#4	7.02435e-18	$X=8.0995 $Y=1.2035
C350	XI0/net6#3	XI0/net4#3	7.64325e-18	$X=1.902 $Y=1.1265
C351	XI0/net14#2	A#1	2.07153e-18	$X=2.632 $Y=0.991
C352	gnd!#21	Cin#9	4.54979e-18	$X=6.4655 $Y=0.7715
C353	B#17	B#14	4.57872e-18	$X=0.5735 $Y=0.7185
C354	vdd!#30	vdd!#29	2.78929e-18	$X=3.6345 $Y=1.296
C355	net3#22	vdd!	2.29847e-18	$X=2.113 $Y=1.3515
C356	XI0/net14#7	B#6	1.01621e-18	$X=1.273 $Y=0.539
C357	net3#2	Cin#3	6.27217e-18	$X=3.5755 $Y=0.673
C358	Cin#17	XI1/net6#8	2.17175e-18	$X=6.8665 $Y=1.288
C359	gnd!#5	net3#10	2.25164e-18	$X=7.7135 $Y=0.486
C360	B#9	A#10	1.18415e-17	$X=4.636 $Y=1.182
C361	XI0/net14#8	vdd!	4.51673e-18	$X=0.94 $Y=1.3175
C362	Cin#1	Cin#2	4.31489e-18	$X=3.79 $Y=0.874
C363	net9#15	A#21	3.50017e-17	$X=4.587 $Y=0.79
C364	gnd!#13	gnd!#3	2.00661e-17	$X=2.722 $Y=0.1455
C365	XI1/net14#9	XI1/net14#3	5.77251e-18	$X=7.993 $Y=0.9595
C366	XI0/net6#8	vdd!	2.62882e-18	$X=0.476 $Y=1.339
C367	B#19	net3#3	1.44414e-18	$X=3.551 $Y=0.867
C368	vdd!#20	vdd!	3.5748e-17	$X=0.3075 $Y=1.454
C369	vdd!	vdd!#3	4.97834e-17	$X=4.796 $Y=1.737
C370	net3#29	net3#15	1.44199e-18	$X=2.927 $Y=0.765
C371	XI0/net9#4	net3#4	3.74036e-19	$X=3.344 $Y=0.4305
C372	vdd!#5	net3#5	3.9246e-18	$X=7.714 $Y=1.434
C373	vdd!#32	B#1	3.93437e-18	$X=1.506 $Y=1.3805
C374	XI0/net9	B#8	4.4122e-19	$X=1.079 $Y=0.4935
C375	net3#16	XI0/net14#2	5.35644e-18	$X=2.492 $Y=0.881
C376	B#17	XI0/net6#5	2.22836e-17	$X=0.673 $Y=0.8155
C377	gnd!#27	gnd!#26	2.13536e-18	$X=1.074 $Y=0.4555
C378	gnd!#13	XI0/net1	2.22976e-17	$X=2.4165 $Y=0.3715
C379	net3#15	A#2	6.16197e-18	$X=2.6955 $Y=0.643
C380	Cin#15	Cin#1	4.17678e-18	$X=3.8655 $Y=0.929
C381	net3#31	net3#27	6.49144e-18	$X=6.7825 $Y=0.705
C382	net3#29	A#21	1.29985e-17	$X=4.142 $Y=0.8025
C383	XI0/net14#8	B#1	1.08178e-18	$X=1.38 $Y=1.361
C384	Cout#1	net9#9	1.45671e-17	$X=6.0665 $Y=0.8245
C385	A#21	vdd!#29	1.43539e-18	$X=4.1895 $Y=1.2225
C386	S#6	XI1/net4#7	1.24403e-17	$X=8.903 $Y=1.356
C387	Cout#5	net3#6	1.26536e-18	$X=7.4995 $Y=0.9215
C388	vdd!#9	vdd!#3	3.37963e-18	$X=5.8075 $Y=1.6645
C389	gnd!#26	B#8	1.27354e-18	$X=1.0025 $Y=0.477
C390	gnd!#12	gnd!#10	1.59998e-18	$X=3.708 $Y=0.0695
C391	XI1/net9#2	XI1/net1	1.39187e-18	$X=8.3185 $Y=0.4075
C392	vdd!#30	net9#7	3.72055e-17	$X=3.5285 $Y=1.2705
C393	net9#17	Cout#2	1.01905e-18	$X=5.792 $Y=0.7295
C394	net3#16	A#2	2.0806e-18	$X=2.4675 $Y=0.726
C395	XI0/net14#8	B#3	4.12323e-18	$X=0.975 $Y=1.1305
C396	net3	Cin#4	1.72884e-17	$X=3.6355 $Y=1.302
C397	net3#31	XI1/net14#6	2.60803e-18	$X=6.651 $Y=0.8825
C398	gnd!#14	gnd!#3	1.2782e-17	$X=1.8755 $Y=0.0695
C399	S#2	Cin#5	3.3908e-18	$X=8.9755 $Y=1.1295
C400	XI1/net6#5	net3#6	1.17982e-18	$X=7.636 $Y=0.9085
C401	net3#17	XI0/net6#2	3.78436e-18	$X=2.0305 $Y=0.9425
C402	Cin#17	XI1/net14#8	2.30747e-18	$X=6.541 $Y=1.3055
C403	gnd!#18	XI1/net9#3	8.58097e-18	$X=8.9 $Y=0.483
C404	net3#31	Cin#17	2.66476e-18	$X=6.43 $Y=0.96
C405	XI0/net9#4	A#2	8.20649e-18	$X=2.508 $Y=0.301
C406	S#3	Cin#5	4.96282e-19	$X=8.7475 $Y=1.1185
C407	XI1/net6#6	XI1/net14#9	1.33734e-18	$X=7.349 $Y=0.8835
C408	XI0/net14#7	B#8	2.97505e-18	$X=0.8435 $Y=0.4945
C409	net3#29	net9#15	6.50342e-17	$X=3.984 $Y=0.6205
C410	A#21	net9#7	1.34817e-18	$X=4.0835 $Y=1.1805
C411	gnd!#23	net10#8	8.24995e-18	$X=4.582 $Y=0.4155
C412	net3#6	XI1/net14#2	6.73815e-18	$X=8.0295 $Y=0.9465
C413	A#15	XI0/net6#5	5.66248e-18	$X=0.312 $Y=0.919
C414	Cout#5	net3#7	1.27204e-18	$X=7.075 $Y=0.9985
C415	gnd!#9	net10#3	7.81173e-18	$X=5.401 $Y=0.5795
C416	vdd!#32	B#7	1.45435e-18	$X=0.9745 $Y=1.3775
C417	A#1	net3	4.08875e-18	$X=3.2425 $Y=1.2725
C418	XI0/net6#6	vdd!#19	1.76789e-18	$X=0.524 $Y=1.1535
C419	B#14	B#4	1.16432e-18	$X=0.719 $Y=0.771
C420	XI1/net9#2	S#4	1.52874e-18	$X=8.1775 $Y=0.4715
C421	XI0/net6#2	XI0/net14	1.18524e-18	$X=2.193 $Y=1.0935
C422	XI0/net4#8	vdd!#16	1.55771e-17	$X=2.725 $Y=1.5805
C423	gnd!#27	B#8	3.63008e-18	$X=0.782 $Y=0.477
C424	Cin#17	vdd!#24	1.77909e-18	$X=6.3985 $Y=1.3445
C425	net9#17	Cin#17	4.34084e-17	$X=6.1425 $Y=1.0655
C426	net3#3	net3#2	2.94506e-18	$X=3.502 $Y=0.838
C427	XI0/net14#8	B#7	3.99472e-18	$X=0.8355 $Y=1.358
C428	gnd!#27	XI0/net14#7	1.26099e-17	$X=0.8165 $Y=0.484
C429	A#21	net10#6	6.12313e-19	$X=4.7815 $Y=0.7465
C430	vdd!#10	vdd!#3	6.39473e-18	$X=5.4015 $Y=1.666
C431	gnd!#6	XI1/net14#7	1.45431e-18	$X=6.723 $Y=0.4185
C432	XI0/net14#10	A#2	1.98025e-18	$X=2.19 $Y=0.545
C433	Cin#19	vdd!#11	5.56449e-18	$X=4.8415 $Y=1.7305
C434	XI0/net1	XI0/net14#10	5.16796e-18	$X=2.2695 $Y=0.585
C435	XI0/net9#4	XI0/net14#4	5.97561e-19	$X=2.5015 $Y=0.462
C436	A#15	A#12	9.9244e-18	$X=0.1345 $Y=0.91
C437	gnd!#18	S#2	3.90791e-18	$X=8.7615 $Y=0.674
C438	net3#29	net9#6	2.24375e-18	$X=3.69 $Y=0.6735
C439	XI0/net14	A#1	5.18492e-18	$X=2.667 $Y=1.2855
C440	gnd!#6	net3#12	1.98783e-18	$X=6.9965 $Y=0.4365
C441	XI0/net6#6	vdd!	5.22527e-18	$X=0.4685 $Y=0.9305
C442	vdd!#33	B#7	4.64961e-18	$X=0.7865 $Y=1.3765
C443	XI0/net6#7	B#8	1.70207e-18	$X=0.704 $Y=0.5
C444	net3#31	XI1/net6#6	1.44461e-18	$X=7.051 $Y=0.81
C445	gnd!#3	Cout#2	1.76623e-18	$X=5.7215 $Y=0.6765
C446	vdd!#6	net3#11	2.51103e-18	$X=6.9915 $Y=1.4385
C447	XI0/net14#6	vdd!	9.26647e-19	$X=0.9315 $Y=0.846
C448	B#19	gnd!#10	6.74604e-18	$X=4.2545 $Y=0.254
C449	XI1/net6#5	net3#9	1.27167e-18	$X=7.0955 $Y=0.7895
C450	net3#31	Cout#5	5.1398e-17	$X=6.3775 $Y=0.6035
C451	XI1/net9#2	XI1/net1#2	1.59944e-17	$X=8.048 $Y=0.4075
C452	net9#17	net9#13	5.62538e-18	$X=6.051 $Y=0.9145
C453	Cin#17	vdd!#25	4.30527e-18	$X=5.957 $Y=1.2095
C454	XI0/net6#8	B#7	2.01924e-18	$X=0.716 $Y=1.363
C455	XI0/net6#2	XI0/net14#3	3.25335e-18	$X=2.168 $Y=0.869
C456	net3#14	vdd!	2.1736e-18	$X=3.2495 $Y=0.8385
C457	XI0/net4#8	vdd!#30	1.03838e-18	$X=2.9345 $Y=1.464
C458	net3#16	vdd!	3.72935e-18	$X=2.577 $Y=0.972
C459	net3#17	vdd!	8.17164e-18	$X=2.1125 $Y=0.972
C460	XI1/net4#5	S#6	1.63836e-17	$X=8.6555 $Y=1.356
C461	net9#17	XI1/net14#6	1.65402e-18	$X=6.534 $Y=0.9255
C462	net3#25	XI0/net9#3	8.85515e-19	$X=3.0675 $Y=0.6105
C463	net3#17	XI0/net14#2	1.87344e-18	$X=2.3425 $Y=0.8855
C464	XI0/net6	XI0/net14	3.96681e-18	$X=2.2095 $Y=1.3405
C465	XI0/net14#7	A#3	1.66132e-18	$X=0.934 $Y=0.437
C466	XI0/net14#6	vdd!#3	6.15258e-19	$X=0.994 $Y=0.862
C467	XI1/net6#8	net3#7	4.12323e-18	$X=7.175 $Y=1.1305
C468	XI0/net14#10	net3#18	8.902e-18	$X=2.106 $Y=0.629
C469	XI0/net14#6	B#6	1.2827e-18	$X=1.2935 $Y=0.6685
C470	gnd!#16	gnd!#3	1.32515e-17	$X=0.911 $Y=0.147
C471	S#4	XI1/net6#2	1.75564e-18	$X=8.5415 $Y=0.746
C472	XI0/net6#5	B#3	1.90346e-18	$X=0.9345 $Y=1.022
C473	net10#6	vdd!	5.67719e-19	$X=4.739 $Y=0.6935
C474	S#2	XI1/net6	3.80897e-18	$X=8.699 $Y=1.1915
C475	Cout#5	net9#17	2.76319e-17	$X=6.063 $Y=0.7765
C476	B#5	vdd!#33	4.22963e-18	$X=0.728 $Y=0.978
C477	Cin#17	Cout#3	3.35564e-18	$X=5.815 $Y=1.15
C478	XI1/net14#6	net3#7	2.53151e-18	$X=6.9645 $Y=0.9985
C479	B#2	XI0/net6	7.11377e-19	$X=1.814 $Y=1.2085
C480	B#2	XI0/net6#3	4.40419e-18	$X=1.7145 $Y=0.9675
C481	vdd!#31	vdd!#30	1.12097e-17	$X=3.167 $Y=1.36
C482	vdd!#11	vdd!#3	4.9585e-18	$X=4.9955 $Y=1.7795
C483	S#3	XI1/net6	1.03825e-18	$X=8.5165 $Y=1.178
C484	gnd!#27	A#3	2.52296e-18	$X=0.796 $Y=0.392
C485	XI1/net14#6	vdd!	5.14581e-18	$X=6.6405 $Y=0.9305
C486	XI1/net14#6	XI1/net6#6	7.46656e-18	$X=6.883 $Y=0.885
C487	XI1/net14#5	net3#9	3.06243e-18	$X=6.952 $Y=0.8425
C488	XI0/net9#2	A#2	3.83505e-18	$X=1.984 $Y=0.3005
C489	B#1	XI0/net6	4.02681e-18	$X=1.7555 $Y=1.368
C490	gnd!#7	XI1/net14#7	3.46519e-18	$X=6.571 $Y=0.392
C491	XI1/net6#6	vdd!	9.26647e-19	$X=7.1035 $Y=0.846
C492	gnd!#3	Cout#4	3.88315e-18	$X=5.7175 $Y=0.4355
C493	XI0/net6#7	XI0/net14#7	2.16142e-18	$X=0.6955 $Y=0.52
C494	vdd!#33	A#6	2.8842e-18	$X=0.4445 $Y=1.373
C495	XI0/net4#8	vdd!#31	1.22512e-17	$X=2.8635 $Y=1.472
C496	Cout#3	vdd!#9	1.60064e-18	$X=5.7465 $Y=1.417
C497	net9#15	net10#6	7.99312e-19	$X=4.6415 $Y=0.677
C498	B#19	gnd!#12	3.4962e-18	$X=3.486 $Y=0.2505
C499	S#4	XI1/net9#3	2.13122e-18	$X=8.703 $Y=0.524
C500	XI1/net1	gnd!#18	1.85015e-17	$X=8.679 $Y=0.453
C501	vdd!#5	vdd!	2.48249e-17	$X=7.5925 $Y=1.7125
C502	gnd!#5	Cin#7	1.26384e-17	$X=7.3995 $Y=0.1945
C503	XI0/net6#7	A#3	5.92796e-18	$X=0.6095 $Y=0.443
C504	XI0/net14#2	A#2	4.46369e-18	$X=2.4295 $Y=0.741
C505	net9#2	Cin#8	1.53825e-18	$X=6.225 $Y=0.897
C506	XI0/net6#8	A#6	4.37289e-18	$X=0.3725 $Y=1.359
C507	Cin#17	vdd!#26	1.98048e-18	$X=5.6725 $Y=1.2095
C508	vdd!#6	vdd!	1.9168e-17	$X=6.886 $Y=1.7115
C509	net3#17	net3#16	6.53872e-18	$X=2.3125 $Y=0.969
C510	vdd!#7	vdd!	1.57821e-17	$X=6.431 $Y=1.712
C511	XI0/net14#10	XI0/net1#2	1.96509e-18	$X=1.9905 $Y=0.585
C512	gnd!#22	net10#3	5.53748e-18	$X=5.416 $Y=0.5575
C513	vdd!#9	vdd!	1.25914e-17	$X=5.8315 $Y=1.66
C514	gnd!#19	XI1/net9#2	1.14704e-17	$X=7.7495 $Y=0.42
C515	B#7	B#1	1.57975e-18	$X=1.171 $Y=1.3735
C516	vdd!#10	vdd!	1.88416e-17	$X=5.422 $Y=1.6595
C517	gnd!#3	Cin#3	2.72056e-18	$X=3.651 $Y=0.4645
C518	vdd!#11	vdd!	1.44716e-17	$X=4.9995 $Y=1.7775
C519	vdd!#20	A#6	6.13652e-18	$X=0.3305 $Y=1.3815
C520	gnd!#6	Cin#7	1.05104e-17	$X=7.0555 $Y=0.1915
C521	vdd!#12	vdd!	1.75801e-17	$X=4.432 $Y=1.6595
C522	XI1/net14#5	Cin#9	9.82754e-19	$X=6.634 $Y=0.9905
C523	vdd!#13	vdd!	1.22185e-17	$X=4.007 $Y=1.7775
C524	gnd!#17	A#3	7.83569e-18	$X=0.6035 $Y=0.3125
C525	vdd!#15	vdd!	1.0133e-17	$X=3.437 $Y=1.7195
C526	vdd!#7	Cin#10	3.45938e-18	$X=6.5205 $Y=1.4555
C527	A#21	A#17	6.01013e-18	$X=5.0045 $Y=0.921
C528	XI0/net4#8	XI0/net4#7	2.77326e-18	$X=2.7885 $Y=1.4525
C529	vdd!#16	vdd!	3.07746e-17	$X=2.651 $Y=1.775
C530	gnd!#13	XI0/net1#2	9.43912e-18	$X=2.0725 $Y=0.3715
C531	vdd!#17	vdd!	2.75844e-17	$X=1.888 $Y=1.7755
C532	vdd!#12	vdd!#3	6.3194e-18	$X=4.446 $Y=1.666
C533	gnd!#7	Cin#7	8.21198e-18	$X=6.7625 $Y=0.185
C534	vdd!#19	vdd!	1.97532e-17	$X=0.7545 $Y=1.7115
C535	XI1/net4#8	vdd!#21	1.33538e-17	$X=9.0635 $Y=1.472
C536	Cout#3	vdd!#10	1.61288e-18	$X=5.542 $Y=1.3645
C537	gnd!#10	B#16	2.67862e-18	$X=4.305 $Y=0.667
C538	A#2	net3#2	1.71089e-18	$X=3.351 $Y=0.733
C539	A#6	B#7	3.47e-18	$X=0.582 $Y=1.3695
C540	S#7	XI1/net4#5	1.24478e-17	$X=8.438 $Y=1.356
C541	XI1/net9#4	gnd!#3	1.38483e-18	$X=8.7325 $Y=0.3405
C542	XI0/net14#10	XI0/net9	1.00891e-18	$X=1.778 $Y=0.5915
C543	XI1/net14#6	net3#8	1.79973e-18	$X=6.9105 $Y=0.8285
C544	XI0/net6#3	XI0/net6#2	2.59797e-18	$X=1.964 $Y=0.94
C545	XI0/net6#7	gnd!#27	1.03827e-17	$X=0.5835 $Y=0.4925
C546	vdd!#10	vdd!#9	7.13727e-18	$X=5.674 $Y=1.661
C547	A#21	B#19	6.43644e-18	$X=4.6455 $Y=0.9095
C548	gnd!#3	net3#4	1.94804e-18	$X=3.545 $Y=0.449
C549	net9#15	A#17	1.55223e-18	$X=4.9165 $Y=0.8735
C550	XI0/net6#6	A#3	8.80365e-19	$X=0.61 $Y=0.7255
C551	XI0/net4#8	net3#21	4.31871e-18	$X=2.676 $Y=1.4535
C552	gnd!#9	Cin#7	1.49335e-18	$X=6.339 $Y=0.1835
C553	S#3	XI1/net14	5.70213e-19	$X=8.2335 $Y=1.219
C554	XI1/net4#8	XI1/net4#7	2.97165e-18	$X=8.9885 $Y=1.4525
C555	net9#9	vdd!#3	2.99681e-18	$X=6.0765 $Y=0.922
C556	XI0/net4#6	vdd!#16	1.82719e-17	$X=2.4325 $Y=1.5975
C557	XI1/net1	S#3	5.00955e-19	$X=8.417 $Y=0.738
C558	S#2	vdd!	4.37023e-18	$X=8.7405 $Y=0.972
C559	XI0/net4#7	vdd!#31	1.56473e-17	$X=2.919 $Y=1.3765
C560	A#5	vdd!#20	6.47051e-18	$X=0.2705 $Y=1.094
C561	S#3	vdd!	8.17591e-18	$X=8.2815 $Y=0.972
C562	net9#8	gnd!#23	3.0168e-18	$X=4.0895 $Y=0.4155
C563	XI1/net9#2	gnd!#20	8.05989e-19	$X=7.2715 $Y=0.42
C564	net9#15	B#19	4.00158e-17	$X=4.345 $Y=0.6955
C565	net3#29	A#17	1.26387e-18	$X=4.859 $Y=0.88
C566	vdd!#13	vdd!#3	5.28766e-18	$X=4.0275 $Y=1.7795
C567	net9#5	B#16	7.86636e-18	$X=4.2045 $Y=0.7525
C568	XI0/net14#8	vdd!#19	6.3368e-18	$X=0.8255 $Y=1.482
C569	XI1/net6#5	XI1/net9	8.72912e-19	$X=7.7055 $Y=0.6035
C570	gnd!#14	XI0/net1#2	1.43379e-17	$X=1.84 $Y=0.3175
C571	XI1/net14#9	vdd!#5	5.81966e-18	$X=7.724 $Y=1.2605
C572	Cin#6	XI1/net6#4	1.32096e-17	$X=8.6355 $Y=0.4515
C573	S#1	vdd!#21	2.1235e-18	$X=9.227 $Y=1.019
C574	XI1/net4#8	S#6	4.43563e-18	$X=8.876 $Y=1.4535
C575	S#5	Cin#6	3.21174e-18	$X=9.035 $Y=0.442
C576	Cin#19	vdd!#12	8.16369e-18	$X=4.346 $Y=1.6245
C577	net3#2	Cin#2	1.26534e-17	$X=3.604 $Y=0.8175
C578	XI0/net14#6	A#3	1.83833e-18	$X=0.9395 $Y=0.667
C579	Cin#15	A#21	9.83008e-18	$X=4.203 $Y=1.0065
C580	XI0/net9#2	B#6	1.55092e-18	$X=1.592 $Y=0.5075
C581	Cin#15	gnd!#10	9.5386e-19	$X=4.105 $Y=0.5925
C582	net9#15	net9#11	4.62191e-18	$X=4.078 $Y=0.6445
C583	XI1/net1	S#4	9.94665e-18	$X=8.415 $Y=0.501
C584	XI0/net4#6	vdd!#17	1.45414e-18	$X=2.197 $Y=1.6045
C585	XI1/net6#6	net3#6	1.71825e-18	$X=7.428 $Y=0.9105
C586	net3#29	B#19	4.91857e-17	$X=3.8515 $Y=0.6795
C587	Cin#6	XI1/net14#4	8.94072e-18	$X=8.2435 $Y=0.479
C588	gnd!#9	Cout#2	2.19646e-18	$X=5.6535 $Y=0.5345
C589	XI1/net9#3	Cin#6	3.17653e-18	$X=8.889 $Y=0.439
C590	Cout#5	net3#27	6.75881e-18	$X=6.729 $Y=0.703
C591	Cin#17	net9#13	3.21548e-18	$X=6.0785 $Y=0.9505
C592	gnd!#17	gnd!#27	3.43004e-18	$X=0.5715 $Y=0.4335
C593	XI0/net9#2	XI0/net1	1.04284e-18	$X=2.1185 $Y=0.4075
C594	XI1/net14#6	net3#24	2.78116e-17	$X=6.735 $Y=0.8015
C595	net3#14	vdd!#15	1.5954e-18	$X=3.316 $Y=1.179
C596	gnd!#10	net9#5	1.60236e-18	$X=4.087 $Y=0.4965
C597	Cout#1	net9	1.72247e-17	$X=5.955 $Y=0.792
C598	vdd!#9	net9#4	1.07751e-18	$X=5.7625 $Y=1.3055
C599	Cin#11	B#16	6.53439e-18	$X=4.157 $Y=0.874
C600	XI1/net6#5	gnd!#19	3.11583e-18	$X=7.5735 $Y=0.5765
C601	XI1/net14#4	XI1/net6#4	3.11536e-18	$X=8.457 $Y=0.5055
C602	B#5	B#4	2.50502e-18	$X=0.785 $Y=0.7895
C603	gnd!#13	gnd!#12	1.57282e-18	$X=2.973 $Y=0.0985
C604	XI1/net14#5	net3#7	2.05768e-18	$X=7.1345 $Y=1.022
C605	XI1/net4#3	S#7	1.85693e-17	$X=8.1905 $Y=1.356
C606	net9#15	Cin#15	1.40902e-17	$X=4.116 $Y=0.8875
C607	net3#29	net9#11	2.43867e-18	$X=3.9765 $Y=0.6385
C608	XI1/net1	Cin#6	5.86432e-18	$X=8.5325 $Y=0.375
C609	Cout#5	Cin#17	7.45515e-18	$X=6.1935 $Y=0.9465
C610	XI0/net14#5	B#6	9.30346e-19	$X=1.4605 $Y=0.621
C611	gnd!#9	net9#3	2.97145e-18	$X=5.596 $Y=0.4035
C612	XI0/net9#3	net3#15	9.42386e-18	$X=2.84 $Y=0.6445
C613	S#4	Cin#6	1.97291e-18	$X=8.3465 $Y=0.451
C614	net3#10	XI1/net14#4	5.02857e-18	$X=7.9805 $Y=0.543
C615	XI0/net9#2	net3#18	2.2204e-18	$X=1.9775 $Y=0.4715
C616	XI0/net6#3	vdd!#17	2.32516e-18	$X=1.89 $Y=1.1455
C617	net9#5	Cin#11	2.55987e-17	$X=4.0295 $Y=0.8225
C618	net9#15	net3#25	1.45493e-18	$X=3.382 $Y=0.6745
C619	net3#29	Cin#15	1.78728e-18	$X=3.875 $Y=0.905
C620	XI0/net4#6	net3#21	7.58386e-18	$X=2.4585 $Y=1.438
C621	XI1/net9#3	XI1/net6#4	1.70939e-18	$X=8.781 $Y=0.494
C622	XI1/net1#2	Cin#6	4.93855e-18	$X=8.2265 $Y=0.375
C623	Cout#5	net9#13	1.98534e-17	$X=6.0595 $Y=0.884
C624	B#2	vdd!	1.29769e-17	$X=1.5455 $Y=0.978
C625	B#3	vdd!	1.07582e-17	$X=1.0155 $Y=1.0535
C626	net3#21	XI0/net4#7	1.24506e-17	$X=2.703 $Y=1.356
C627	net10#3	A#13	1.61441e-17	$X=5.143 $Y=0.8945
C628	XI0/net6#2	vdd!	6.2211e-18	$X=2.0035 $Y=0.9315
C629	gnd!#17	XI0/net6#7	1.42242e-17	$X=0.3815 $Y=0.4845
C630	gnd!#18	XI1/net6#4	2.40381e-18	$X=8.6915 $Y=0.477
C631	S#1	XI1/net4#7	3.91347e-18	$X=9.135 $Y=1.029
C632	Cin#19	XI0/net4#8	1.00129e-17	$X=2.8955 $Y=1.519
C633	XI1/net6#6	net3#7	5.15413e-18	$X=7.1645 $Y=0.961
C634	XI0/net14#2	vdd!	4.10417e-18	$X=2.4675 $Y=0.8465
C635	XI1/net4#6	S#6	8.01774e-18	$X=8.6585 $Y=1.438
C636	XI0/net9#2	A#3	1.30005e-18	$X=1.4385 $Y=0.298
C637	A#4	vdd!	8.4596e-18	$X=0.3575 $Y=0.951
C638	net3#14	vdd!#16	1.55527e-18	$X=3.134 $Y=1.0015
C639	net3#24	XI1/net6#6	3.29015e-18	$X=6.926 $Y=0.767
C640	net3#2	vdd!	2.7535e-18	$X=3.534 $Y=0.8185
C641	XI0/net14#10	vdd!#17	7.25777e-19	$X=2.0195 $Y=1.1655
C642	XI1/net14#5	XI1/net14#6	8.18088e-18	$X=6.7795 $Y=0.94
C643	Cin#2	vdd!	4.23134e-18	$X=3.7405 $Y=0.82
C644	net3#29	net3#25	9.77091e-18	$X=3.244 $Y=0.6705
C645	B#10	vdd!	1.78659e-18	$X=4.532 $Y=0.8185
C646	vdd!#15	vdd!#3	3.85106e-18	$X=3.466 $Y=1.7225
C647	gnd!#23	B#11	5.22544e-18	$X=4.444 $Y=0.658
C648	A#8	vdd!	4.39463e-18	$X=4.7365 $Y=0.82
C649	XI0/net9#2	XI0/net1#2	1.4864e-17	$X=1.848 $Y=0.4075
C650	XI1/net1	XI1/net6#4	2.61757e-18	$X=8.6385 $Y=0.478
C651	net10#2	vdd!	1.22332e-18	$X=5.53 $Y=0.8185
C652	net9#6	net3#2	1.58774e-18	$X=3.5955 $Y=0.7775
C653	A#17	net9#13	1.10471e-18	$X=5.5295 $Y=0.912
C654	net9#2	vdd!	4.35795e-18	$X=5.733 $Y=0.82
C655	A#4	B#5	2.47939e-18	$X=0.5085 $Y=0.883
C656	A#17	net10#7	4.65549e-19	$X=4.9125 $Y=0.962
C657	net3#6	vdd!	1.29379e-17	$X=7.7185 $Y=0.978
C658	Cin#7	net3#10	9.15247e-18	$X=7.6245 $Y=0.493
C659	XI0/net4#6	XI0/net4#5	2.07178e-18	$X=2.362 $Y=1.4385
C660	XI0/net6#4	XI0/net14#2	1.22097e-18	$X=2.23 $Y=0.6875
C661	B#17	gnd!#26	1.00886e-18	$X=1.1605 $Y=0.501
C662	net3#7	vdd!	1.07565e-17	$X=7.194 $Y=1.0535
C663	vdd!#11	vdd!#10	5.46835e-18	$X=5.185 $Y=1.7285
C664	vdd!#10	net10	1.36398e-18	$X=5.512 $Y=1.271
C665	XI1/net14#2	vdd!	6.2211e-18	$X=8.188 $Y=0.9315
C666	S#4	XI1/net6#4	1.6182e-18	$X=8.56 $Y=0.5025
C667	XI1/net6#2	vdd!	4.2556e-18	$X=8.652 $Y=0.8465
C668	Cin#8	net3#7	3.14656e-18	$X=6.818 $Y=0.992
C669	Cin#8	vdd!	4.45795e-18	$X=6.5425 $Y=0.951
C670	net3#24	XI1/net6#7	3.44983e-18	$X=6.9335 $Y=0.624
C671	XI1/net4#6	XI1/net4#5	2.01953e-18	$X=8.562 $Y=1.4385
C672	Cin#7	net3#12	1.30931e-17	$X=7.04 $Y=0.449
C673	XI1/net4	XI1/net4#3	1.01828e-17	$X=7.9645 $Y=1.362
C674	XI1/net1#2	S#4	2.00308e-17	$X=8.207 $Y=0.501
C675	XI0/net14#5	A#3	1.63339e-18	$X=1.1585 $Y=0.561
C676	vdd!#3	B#2	2.21714e-18	$X=1.5965 $Y=0.9915
C677	gnd!#9	net10#4	3.65853e-18	$X=5.514 $Y=0.3975
C678	B#17	XI0/net14#7	2.28128e-18	$X=0.7985 $Y=0.538
C679	A#12	A#4	2.97732e-18	$X=0.258 $Y=0.936
C680	gnd!#3	net9#8	6.64415e-18	$X=3.753 $Y=0.4355
C681	XI1/net9	XI1/net6#4	2.97706e-19	$X=8.3895 $Y=0.4935
C682	XI0/net4#6	net3#22	4.27682e-18	$X=2.228 $Y=1.438
C683	vdd!#5	XI1/net4#2	1.67631e-17	$X=7.7865 $Y=1.5755
C684	B#14	A#3	1.96835e-18	$X=0.6645 $Y=0.651
C685	vdd!#16	vdd!#3	1.32203e-17	$X=2.779 $Y=1.7795
C686	XI1/net4#6	S#7	4.32271e-18	$X=8.428 $Y=1.438
C687	XI0/net6#8	vdd!#19	6.3545e-18	$X=0.5495 $Y=1.4865
C688	A#19	B#17	2.20483e-18	$X=0.3375 $Y=0.756
C689	net3#25	gnd!#12	1.93232e-18	$X=3.2225 $Y=0.5455
C690	net9#3	Cin#7	1.27259e-18	$X=5.9555 $Y=0.421
C691	XI1/net1	XI1/net14#4	1.07638e-18	$X=8.3005 $Y=0.5065
C692	XI1/net9#2	gnd!#3	4.51611e-18	$X=7.8635 $Y=0.3395
C693	XI1/net6#6	net3#8	3.27806e-18	$X=7.0405 $Y=0.8045
C694	XI1/net4#8	XI1/net6	9.85592e-19	$X=8.781 $Y=1.401
C695	gnd!#24	net9#8	8.4665e-18	$X=3.582 $Y=0.4155
C696	XI1/net14#5	XI1/net6#6	5.83572e-18	$X=7.0665 $Y=0.887
C697	Cin#14	XI1/net14#6	2.41363e-18	$X=6.4465 $Y=1.006
C698	XI1/net14#6	Cin#8	4.26392e-18	$X=6.5825 $Y=0.942
C699	net3#15	vdd!#16	2.30875e-18	$X=2.804 $Y=0.994
C700	gnd!#9	Cout#4	2.93866e-18	$X=5.6535 $Y=0.3605
C701	S#4	XI1/net14#4	4.10241e-18	$X=8.2285 $Y=0.5335
C702	net9#6	Cin#2	8.02381e-18	$X=3.738 $Y=0.7595
C703	XI0/net4#4	vdd!#17	1.6572e-17	$X=1.8805 $Y=1.5955
C704	Cin#19	vdd!#13	4.92208e-18	$X=4.003 $Y=1.734
C705	XI1/net4#6	XI1/net6	2.34954e-18	$X=8.6285 $Y=1.384
C706	A#19	A#15	1.04528e-17	$X=0.1445 $Y=0.9015
C707	gnd!#26	XI0/net9#2	1.14859e-17	$X=1.5495 $Y=0.42
C708	XI1/net9	S#4	3.44295e-18	$X=8.0345 $Y=0.523
C709	XI0/net4#5	net3#21	1.63758e-17	$X=2.4555 $Y=1.356
C710	gnd!#25	net3#16	3.90791e-18	$X=2.5615 $Y=0.674
C711	XI1/net1#2	XI1/net14#4	4.18167e-18	$X=8.169 $Y=0.5065
C712	vdd!#3	B#3	2.16219e-18	$X=1.0625 $Y=1.063
C713	XI1/net14#7	net3#24	2.39984e-17	$X=6.734 $Y=0.641
C714	net10#4	net9#3	3.81563e-17	$X=5.5805 $Y=0.4605
C715	B#6	XI0/net6#2	1.21503e-18	$X=1.781 $Y=0.758
C716	B#19	A#17	1.83951e-18	$X=4.9445 $Y=0.898
C717	vdd!#25	net9#2	1.68341e-18	$X=5.767 $Y=0.937
C718	net9#6	net9#5	5.51658e-18	$X=3.9025 $Y=0.6695
C719	net3#16	A#1	2.91713e-18	$X=2.7755 $Y=1.1295
C720	B#17	XI0/net6#7	6.94548e-18	$X=0.4635 $Y=0.556
C721	Cout#2	Cout#1	6.88878e-18	$X=5.9185 $Y=0.692
C722	vdd!#17	vdd!#3	1.05685e-17	$X=2.041 $Y=1.779
C723	Cin#2	B#10	1.54318e-18	$X=4.251 $Y=0.8175
C724	gnd!#6	XI1/net6#6	1.42744e-18	$X=7.055 $Y=0.6425
C725	gnd!#3	A#3	6.35431e-18	$X=1.1755 $Y=0.2245
C726	XI1/net14#5	gnd!#20	1.32435e-18	$X=6.9425 $Y=0.644
C727	XI1/net4#6	XI1/net14	1.05545e-18	$X=8.3005 $Y=1.407
C728	gnd!#12	net3#3	1.88013e-18	$X=3.372 $Y=0.6445
C729	vdd!#22	XI1/net4	1.59912e-17	$X=7.739 $Y=1.3775
C730	A#9	net10#4	1.0941e-18	$X=5.118 $Y=0.4605
C731	net3#15	net3#19	8.19671e-18	$X=3.11 $Y=0.694
C732	net3#27	XI1/net14#6	2.67304e-18	$X=6.74 $Y=0.7945
C733	Cin#8	net3#8	1.74424e-18	$X=6.816 $Y=0.857
C734	net3#20	net9#8	1.2068e-18	$X=3.372 $Y=0.478
C735	XI1/net14#2	XI1/net6#2	3.81724e-18	$X=8.4295 $Y=0.8875
C736	XI1/net6#10	XI1/net4#3	6.6899e-19	$X=8.191 $Y=1.1315
C737	XI1/net4#4	XI1/net14	2.30775e-18	$X=8.1635 $Y=1.413
C738	B#17	gnd!#17	3.13963e-18	$X=0.3745 $Y=0.494
C739	net3#22	net3#21	2.16993e-18	$X=2.327 $Y=1.3505
C740	vdd!#20	vdd!#19	3.2779e-18	$X=0.4965 $Y=1.593
C741	XI1/net6#6	XI1/net14#2	7.29398e-19	$X=7.8155 $Y=0.899
C742	XI0/net14#10	XI0/net4#3	6.6899e-19	$X=1.991 $Y=1.1315
C743	XI1/net9	XI1/net1#2	8.58715e-18	$X=7.9345 $Y=0.4845
C744	net10#6	A#13	2.65167e-17	$X=4.9575 $Y=0.8415
C745	net9#9	XI1/net14#6	3.08608e-18	$X=6.2585 $Y=0.9185
C746	XI1/net4#4	S#7	7.99831e-18	$X=8.1845 $Y=1.4455
C747	Cin#6	XI1/net6#3	1.95869e-18	$X=8.5665 $Y=0.6725
C748	XI0/net4#4	net3#22	7.44824e-18	$X=1.9845 $Y=1.4455
C749	net3#16	vdd!#16	2.21541e-18	$X=2.577 $Y=1.174
C750	Cin#15	A#17	1.5833e-18	$X=4.743 $Y=0.9315
C751	net9#11	B#19	1.37424e-17	$X=4.0595 $Y=0.656
C752	XI0/net6#9	vdd!#17	2.23054e-18	$X=1.678 $Y=1.25
C753	Cout#3	net10#2	6.93869e-19	$X=5.552 $Y=0.877
C754	net3#31	XI1/net6#5	4.18206e-18	$X=7.291 $Y=0.75
C755	XI1/net4#2	XI1/net14	5.90847e-19	$X=8.044 $Y=1.4325
C756	B#12	A#9	3.82148e-17	$X=4.5805 $Y=0.4605
C757	XI0/net9#2	gnd!#27	7.45232e-19	$X=1.0715 $Y=0.42
C758	XI1/net6#2	Cin#5	2.07153e-18	$X=8.832 $Y=0.991
C759	Cin#6	XI1/net14#3	1.64057e-18	$X=8.2035 $Y=0.7615
C760	vdd!#12	vdd!#11	6.86066e-18	$X=4.7515 $Y=1.7275
C761	gnd!#12	net3#19	4.38634e-18	$X=3.224 $Y=0.5475
C762	net10#7	vdd!#12	1.13951e-18	$X=4.54 $Y=1.369
C763	net3#16	XI0/net14	3.76705e-18	$X=2.499 $Y=1.1915
C764	XI0/net14#5	XI0/net9	8.72912e-19	$X=1.5055 $Y=0.6035
C765	XI1/net4#4	XI1/net4#3	1.50879e-18	$X=8.0965 $Y=1.4455
C766	gnd!#19	net3#10	2.97082e-18	$X=7.6935 $Y=0.5185
C767	Cout#1	net9#2	5.69401e-19	$X=5.9035 $Y=0.7485
C768	net3#27	XI1/net6#6	1.90569e-18	$X=6.915 $Y=0.763
C769	Cin#15	B#19	1.42885e-17	$X=4.0765 $Y=0.949
C770	Cin#15	vdd!#28	1.68824e-18	$X=4.214 $Y=1.0965
C771	net3#17	XI0/net14	1.03825e-18	$X=2.3165 $Y=1.178
C772	Cin#19	vdd!#28	1.49766e-18	$X=4.3605 $Y=1.253
C773	net3#22	XI0/net4#5	1.24506e-17	$X=2.238 $Y=1.356
C774	XI0/net4#4	XI0/net4#3	1.43007e-18	$X=1.8965 $Y=1.4455
C775	vdd!#12	B#9	1.36398e-18	$X=4.5115 $Y=1.2735
C776	XI1/net6#7	net3#10	1.00077e-18	$X=7.473 $Y=0.539
C777	gnd!#24	net3#3	5.53748e-18	$X=3.4385 $Y=0.6375
C778	net3#15	XI0/net4#8	4.96781e-18	$X=2.807 $Y=1.14
C779	B#17	XI0/net6#6	2.9218e-18	$X=0.4665 $Y=0.8315
C780	Cin#3	B#12	1.07037e-18	$X=4.118 $Y=0.4605
C781	gnd!#3	XI1/net14#3	8.04931e-19	$X=8.041 $Y=0.9425
C782	Cin#17	XI1/net14#6	2.37148e-18	$X=6.578 $Y=0.981
C783	A#15	gnd!#17	2.32097e-18	$X=0.159 $Y=0.7915
C784	Cout#3	net9#2	1.20253e-18	$X=5.705 $Y=0.911
C785	B#19	vdd!#31	1.19113e-18	$X=3.2925 $Y=1.2675
C786	S#2	XI1/net4#5	4.01179e-18	$X=8.6675 $Y=1.1585
C787	XI1/net6#8	vdd!#22	5.36052e-18	$X=7.3845 $Y=1.357
C788	net3#31	XI1/net14#5	3.76005e-18	$X=6.9205 $Y=0.886
C789	B#19	net3#25	2.66241e-18	$X=3.3255 $Y=0.688
C790	XI0/net14#5	gnd!#26	3.11583e-18	$X=1.3735 $Y=0.5765
C791	net9#11	Cin#15	1.23702e-17	$X=4.0275 $Y=0.736
C792	B#16	net10#6	4.79523e-18	$X=4.4495 $Y=0.7815
C793	Cout#1	XI1/net14#6	1.5731e-18	$X=6.273 $Y=0.785
C794	vdd!#19	vdd!#3	7.31859e-18	$X=0.914 $Y=1.7165
C795	XI0/net1	net3#17	5.00955e-19	$X=2.217 $Y=0.738
C796	gnd!#10	B#12	3.73004e-18	$X=4.4725 $Y=0.3775
C797	gnd!#13	XI0/net14#3	1.47227e-18	$X=2.418 $Y=0.692
C798	B#19	net9#6	3.93087e-18	$X=3.82 $Y=0.701
C799	XI0/net4#6	XI0/net4#8	2.52637e-18	$X=2.5925 $Y=1.5245
C800	net3#4	Cin#3	3.90118e-17	$X=3.5805 $Y=0.4605
C801	XI0/net4#8	net3#16	9.87357e-19	$X=2.669 $Y=1.2715
C802	gnd!#19	net3#12	1.22514e-18	$X=7.2025 $Y=0.477
C803	A#3	B#2	2.30811e-18	$X=1.383 $Y=0.7665
C804	XI1/net4#5	XI1/net6#3	4.18632e-19	$X=8.5825 $Y=0.9815
C805	net3#19	net9#6	3.89043e-18	$X=3.3875 $Y=0.6605
C806	net3#25	net9#11	2.70813e-18	$X=3.632 $Y=0.662
C807	Cin#15	net9#7	1.70782e-18	$X=3.885 $Y=1.0765
C808	net9#17	XI1/net14#5	2.75001e-18	$X=6.732 $Y=0.947
C809	net3#31	XI1/net14#7	6.55443e-19	$X=6.647 $Y=0.543
C810	S#3	XI1/net4#5	2.8217e-18	$X=8.4165 $Y=1.1425
C811	A#13	net10#2	8.63727e-19	$X=5.3255 $Y=0.857
C812	XI1/net6#7	net3#12	2.88083e-18	$X=7.0435 $Y=0.4945
C813	net3#20	gnd!#24	3.87693e-18	$X=3.228 $Y=0.4515
C814	vdd!#23	vdd!#22	1.76515e-18	$X=7.2745 $Y=1.392
C815	gnd!#19	XI1/net9	1.23252e-17	$X=7.7365 $Y=0.4825
C816	XI1/net14#9	XI1/net4	1.58257e-18	$X=7.811 $Y=1.189
C817	A#3	B#3	1.99973e-18	$X=1.003 $Y=0.858
C818	B#17	XI0/net14#6	2.47513e-18	$X=0.7915 $Y=0.773
C819	Cout#5	Cout#2	3.62187e-18	$X=5.7935 $Y=0.675
C820	A#15	XI0/net6#6	2.04178e-18	$X=0.2525 $Y=0.913
C821	XI1/net14#2	XI1/net6	1.18524e-18	$X=8.393 $Y=1.0935
C822	XI0/net9#4	net3#15	4.59873e-18	$X=2.7935 $Y=0.644
C823	B#17	gnd!#16	2.71246e-18	$X=0.6005 $Y=0.3975
C824	gnd!#20	net3#12	3.52749e-18	$X=6.982 $Y=0.477
C825	A#2	net3#4	3.5398e-18	$X=3.319 $Y=0.4155
C826	net9#13	XI1/net14#6	1.0373e-18	$X=6.2775 $Y=0.9195
C827	A#3	B#4	1.72645e-18	$X=0.838 $Y=0.713
C828	XI1/net14#5	vdd!#5	6.9069e-19	$X=7.2235 $Y=1.236
C829	gnd!#16	XI0/net14#7	4.95515e-18	$X=0.86 $Y=0.4215
C830	XI1/net14#7	net3#12	1.10031e-18	$X=6.904 $Y=0.5
C831	XI0/net6#9	XI0/net4	1.58257e-18	$X=1.611 $Y=1.189
C832	net9#5	net10#6	1.52311e-18	$X=4.3025 $Y=0.667
C833	net3#31	Cout#1	5.59999e-19	$X=6.0935 $Y=0.686
C834	Cin#7	net3#9	2.54228e-18	$X=6.997 $Y=0.661
C835	XI1/net14#9	vdd!#22	2.6334e-18	$X=7.7055 $Y=1.191
C836	XI0/net4#3	net3#22	1.85615e-17	$X=1.9905 $Y=1.356
C837	net3#31	Cout#4	1.50518e-18	$X=5.857 $Y=0.4645
C838	vdd!#23	XI1/net6#8	2.37627e-17	$X=7.007 $Y=1.3545
C839	XI1/net14#6	vdd!#6	1.76789e-18	$X=6.7265 $Y=1.161
C840	vdd!#21	Cin#5	4.97842e-18	$X=9.1625 $Y=1.2995
C841	A#17	net10#6	2.44405e-18	$X=4.921 $Y=0.84
C842	XI0/net9#4	net3#16	3.69485e-18	$X=2.6105 $Y=0.718
C843	XI0/net6#6	B#3	2.68903e-18	$X=0.7645 $Y=0.9985
C844	A#2	XI0/net14#4	1.32169e-17	$X=2.4355 $Y=0.4515
C845	XI1/net6#7	Cin#7	1.53561e-18	$X=7.134 $Y=0.437
C846	XI0/net9#4	XI0/net14#10	5.13193e-18	$X=2.414 $Y=0.561
C847	XI1/net6#7	XI1/net9	1.38562e-18	$X=7.4685 $Y=0.509
C848	XI0/net9#4	XI0/net14#3	1.45578e-18	$X=2.469 $Y=0.671
C849	net3#25	net3#14	1.70323e-18	$X=3.2355 $Y=0.7455
C850	XI1/net14#5	vdd!#6	4.87327e-18	$X=6.957 $Y=1.2645
C851	vdd!#17	XI0/net4#2	1.62357e-17	$X=1.6765 $Y=1.5825
C852	vdd!#27	A#8	1.68341e-18	$X=4.767 $Y=0.937
C853	S#6	Cin#5	1.82823e-18	$X=8.9905 $Y=1.284
C854	gnd!#3	net9#9	2.02794e-18	$X=6.0775 $Y=0.907
C855	B#10	A#8	1.26497e-17	$X=4.604 $Y=0.8175
C856	XI0/net6#9	vdd!#32	2.6334e-18	$X=1.5055 $Y=1.191
C857	gnd!#20	Cin#7	2.29023e-18	$X=6.996 $Y=0.392
C858	Cout#1	XI1/net14#7	2.40983e-18	$X=6.2675 $Y=0.632
C859	net9#7	vdd!#3	4.18527e-18	$X=3.7135 $Y=1.278
C860	vdd!#13	vdd!#12	2.00566e-18	$X=4.1805 $Y=1.73
C861	A#2	XI0/net6#4	8.94072e-18	$X=2.0435 $Y=0.479
C862	XI1/net14#3	XI1/net4#3	7.64325e-18	$X=8.102 $Y=1.1265
C863	vdd!#29	vdd!#12	2.20896e-18	$X=4.183 $Y=1.5095
C864	gnd!#14	XI0/net6#3	8.60841e-19	$X=1.855 $Y=0.7135
C865	Cin#19	XI0/net4#6	1.4998e-17	$X=2.609 $Y=1.5175
C866	XI0/net4#6	XI0/net14#3	9.10546e-19	$X=2.3815 $Y=1.0185
C867	XI0/net14#6	XI0/net6#9	1.33734e-18	$X=1.149 $Y=0.8835
C868	XI1/net14#7	Cin#7	5.637e-18	$X=6.8095 $Y=0.443
C869	net3#6	XI1/net14	7.11377e-19	$X=8.014 $Y=1.2085
C870	Cin#17	vdd!#3	4.32748e-18	$X=6.1345 $Y=1.2675
C871	XI1/net14#8	XI1/net6#8	3.11538e-18	$X=6.8665 $Y=1.327
C872	net3#25	net3#15	1.60006e-18	$X=3.0855 $Y=0.723
C873	XI1/net4#2	XI1/net4	8.01011e-19	$X=7.8325 $Y=1.4685
C874	XI0/net6#4	XI0/net14#4	3.11536e-18	$X=2.257 $Y=0.5055
C875	Cout#5	XI1/net14#6	8.29864e-19	$X=6.569 $Y=0.8785
C876	net3#31	gnd!#22	2.02979e-18	$X=5.5925 $Y=0.418
C877	XI0/net14#10	XI0/net4#6	4.52226e-18	$X=2.26 $Y=1.2095
C878	XI1/net4#7	XI1/net6	6.37566e-19	$X=8.789 $Y=1.3325
C879	XI0/net1	XI0/net14#3	6.98918e-18	$X=2.3825 $Y=0.6745
C880	gnd!#21	Cin#7	4.10268e-18	$X=6.6625 $Y=0.392
C881	Cin#19	vdd!#29	2.2993e-18	$X=3.8795 $Y=1.343
C882	gnd!#16	gnd!#14	2.53603e-18	$X=1.2255 $Y=0.1095
C883	gnd!#3	Cout#1	5.12015e-18	$X=6.019 $Y=0.6865
C884	S#6	XI1/net6	3.44997e-18	$X=8.693 $Y=1.3275
C885	net3#27	XI1/net6#5	5.64131e-18	$X=6.9705 $Y=0.734
C886	Cin#15	net9#6	1.06463e-18	$X=3.84 $Y=0.8025
C887	XI1/net6#7	gnd!#19	3.59382e-18	$X=7.359 $Y=0.484
C888	XI1/net4#5	XI1/net6	1.95687e-18	$X=8.628 $Y=1.3325
C889	net3#16	XI0/net4#6	4.3682e-18	$X=2.4705 $Y=1.2225
C890	net10#7	B#10	8.76086e-19	$X=4.552 $Y=0.877
C891	XI0/net6#6	B#4	1.66737e-18	$X=0.7105 $Y=0.8285
C892	Cout#4	Cin#7	8.37581e-19	$X=6.137 $Y=0.3845
C893	B#19	net10#6	5.33377e-18	$X=4.667 $Y=0.704
C894	XI0/net9#3	net3#20	1.53187e-17	$X=2.9265 $Y=0.5105
C895	gnd!#13	XI0/net9#4	1.87667e-17	$X=2.641 $Y=0.2855
C896	vdd!#22	XI1/net4#2	1.38165e-17	$X=7.7655 $Y=1.485
C897	S#7	XI1/net6	1.68136e-18	$X=8.545 $Y=1.3275
C898	Cout#5	XI1/net14#9	2.82351e-18	$X=7.378 $Y=0.871
C899	B#6	XI0/net6#4	5.02857e-18	$X=1.7805 $Y=0.543
C900	XI0/net4#2	XI0/net4	5.88597e-19	$X=1.6325 $Y=1.4685
C901	XI0/net4#4	XI0/net4#6	2.52478e-18	$X=2.1065 $Y=1.5245
C902	XI1/net14#8	vdd!#23	1.59981e-17	$X=6.7795 $Y=1.3635
C903	net3#27	net3#24	3.77417e-18	$X=6.7945 $Y=0.7145
C904	XI0/net4	XI0/net4#3	1.01857e-17	$X=1.7645 $Y=1.362
C905	net9#13	vdd!#3	2.18887e-18	$X=6.0385 $Y=0.925
C906	A#15	B#17	4.25382e-18	$X=0.2115 $Y=0.8435
C907	XI0/net14#10	XI0/net6#3	3.04575e-18	$X=1.976 $Y=0.904
C908	XI0/net6#7	B#14	1.57846e-17	$X=0.539 $Y=0.6705
C909	Cout#5	XI1/net6#6	7.45879e-19	$X=6.9665 $Y=0.8065
C910	net3#31	gnd!#7	9.47467e-19	$X=6.4935 $Y=0.2545
C911	net3#17	XI0/net4#6	4.29865e-18	$X=2.2075 $Y=1.2
C912	XI1/net4#2	XI1/net6#8	4.36935e-19	$X=7.6005 $Y=1.463
C913	XI1/net4#5	XI1/net14	6.37566e-19	$X=8.3105 $Y=1.36
C914	XI1/net6#2	Cin#6	4.44166e-18	$X=8.6295 $Y=0.741
C915	net3#27	XI1/net14#5	1.79596e-17	$X=6.847 $Y=0.781
C916	net10#7	A#8	1.20642e-18	$X=4.705 $Y=0.911
C917	S#7	XI1/net14	3.13261e-18	$X=8.2245 $Y=1.357
C918	XI1/net6#5	vdd!#22	6.07906e-19	$X=7.5525 $Y=1.0985
C919	B#8	B#6	1.22397e-18	$X=1.1045 $Y=0.516
C920	Cin#19	vdd!#15	4.04362e-18	$X=3.504 $Y=1.6895
C921	Cin#14	vdd!#7	2.91518e-18	$X=6.361 $Y=1.2115
C922	XI0/net6#5	gnd!#27	1.32435e-18	$X=0.7425 $Y=0.644
C923	gnd!#20	gnd!#19	1.90664e-18	$X=7.2745 $Y=0.4555
C924	XI0/net6#3	XI0/net4#4	6.88127e-18	$X=1.8995 $Y=1.2035
C925	gnd!#12	net3#4	1.94374e-18	$X=3.465 $Y=0.376
C926	XI0/net14#10	XI0/net4#4	5.74229e-18	$X=1.9845 $Y=1.24
C927	vdd!#32	XI0/net4#2	1.36754e-17	$X=1.5655 $Y=1.485
C928	gnd!#6	gnd!#5	2.63129e-18	$X=7.2405 $Y=0.1515
C929	XI1/net4#3	XI1/net14	1.95687e-18	$X=8.1665 $Y=1.36
C930	Cout#4	net9#3	3.53956e-18	$X=5.676 $Y=0.4585
C931	vdd!#24	vdd!#23	2.96338e-18	$X=6.6815 $Y=1.3895
C932	net3#25	net9#6	1.75549e-18	$X=3.4205 $Y=0.6825
C933	XI1/net4	XI1/net14	6.45978e-19	$X=8.0835 $Y=1.3605
C934	XI0/net14#10	net3#16	1.5814e-18	$X=2.3955 $Y=0.8995
C935	XI0/net14#6	B#2	1.71825e-18	$X=1.228 $Y=0.9105
C936	A#3	B#6	9.13843e-18	$X=1.4245 $Y=0.493
C937	XI1/net6#6	XI1/net14#3	2.76006e-18	$X=7.609 $Y=0.901
C938	net9#11	net10#6	7.21986e-19	$X=4.255 $Y=0.658
C939	XI1/net4#2	vdd!#23	4.89655e-19	$X=7.5185 $Y=1.4835
C940	XI1/net6#6	vdd!#6	6.26147e-19	$X=7.054 $Y=1.099
C941	XI0/net6#9	XI0/net6#3	5.73263e-18	$X=1.793 $Y=0.9595
C942	XI0/net6#6	XI0/net14#6	7.46656e-18	$X=0.683 $Y=0.885
C943	gnd!#16	XI0/net6#7	4.96213e-18	$X=0.518 $Y=0.426
C944	Cin#17	XI1/net14#5	1.85584e-18	$X=6.796 $Y=1.028
C945	net3#9	vdd!#23	4.22963e-18	$X=6.9285 $Y=0.9755
C946	A#3	B#8	1.29744e-17	$X=0.84 $Y=0.449
C947	gnd!#22	net9#3	1.39288e-18	$X=5.5535 $Y=0.4365
C948	XI0/net1#2	XI0/net6#3	5.62903e-18	$X=1.902 $Y=0.746
C949	XI0/net14#10	XI0/net6#9	2.29938e-17	$X=1.842 $Y=0.879
C950	Cout#5	XI1/net6#5	1.33559e-17	$X=7.157 $Y=0.7455
C951	gnd!#16	B#5	1.2553e-18	$X=0.729 $Y=0.6495
C952	S#1	XI1/net4#8	5.11113e-18	$X=9.084 $Y=1.1545
C953	vdd!#16	A#1	1.75329e-18	$X=2.866 $Y=1.349
C954	XI0/net14#10	net3#17	2.25391e-17	$X=2.109 $Y=0.9065
C955	XI0/net14#5	vdd!#32	6.07906e-19	$X=1.3525 $Y=1.0985
C956	Cin#17	vdd!#7	3.73882e-18	$X=6.393 $Y=1.5765
C957	vdd!#24	XI1/net14#8	2.1577e-17	$X=6.5465 $Y=1.3635
C958	gnd!#20	XI1/net6#7	1.24855e-17	$X=7.0165 $Y=0.484
C959	Cin#19	vdd!	6.07614e-17	$X=4.0365 $Y=1.4805
C960	Cin#17	Cin#14	7.65333e-18	$X=6.326 $Y=1.068
C961	Cin#19	A#17	2.89515e-18	$X=4.94 $Y=0.946
C962	gnd!#3	net9#5	4.43877e-18	$X=4.046 $Y=0.645
C963	Cout#4	net10#4	1.58333e-18	$X=5.606 $Y=0.449
C964	net9#13	XI1/net14#5	2.12616e-18	$X=6.3085 $Y=0.9265
C965	vdd!#22	net3#5	3.97822e-18	$X=7.706 $Y=1.3805
C966	vdd!#32	XI0/net4	1.59758e-17	$X=1.539 $Y=1.3775
C967	gnd!#25	XI0/net9#3	8.61407e-18	$X=2.7 $Y=0.483
C968	XI1/net4#8	S#2	1.18412e-18	$X=8.869 $Y=1.2715
C969	XI1/net6#8	net3#5	1.09227e-18	$X=7.58 $Y=1.361
C970	net3#27	Cout#1	1.14379e-18	$X=6.425 $Y=0.7045
C971	XI0/net9#2	XI0/net14#10	1.92983e-17	$X=1.945 $Y=0.5605
C972	XI0/net6#9	XI0/net4#4	1.36074e-18	$X=1.767 $Y=1.291
C973	XI0/net14#6	B#3	5.13585e-18	$X=0.9645 $Y=0.961
C974	XI0/net4#2	vdd!#33	4.13872e-19	$X=1.3185 $Y=1.4835
C975	gnd!#12	A#2	2.00893e-18	$X=2.783 $Y=0.142
C976	net3#9	XI1/net6#6	2.31596e-17	$X=7.0115 $Y=0.812
C977	XI0/net6#9	vdd!#3	1.61598e-18	$X=1.7075 $Y=0.99
C978	XI1/net14#6	XI1/net6#8	2.39735e-18	$X=6.8145 $Y=1.067
C979	gnd!#22	net10#4	2.89757e-18	$X=5.495 $Y=0.429
C980	XI0/net6#6	B#14	2.65416e-17	$X=0.54 $Y=0.809
C981	Cout#5	XI1/net14#5	7.57256e-18	$X=6.796 $Y=0.88
C982	vdd!#25	XI1/net14#8	1.02628e-18	$X=6.2605 $Y=1.275
C983	A#8	net10#2	1.56357e-18	$X=5.251 $Y=0.8175
C984	gnd!#13	A#2	1.69842e-17	$X=2.3895 $Y=0.199
C985	Cin#19	net9#7	1.93516e-18	$X=3.74 $Y=1.3085
C986	vdd!#29	Cin#2	1.68341e-18	$X=3.7575 $Y=0.918
C987	Cin#17	vdd!#9	5.18617e-18	$X=5.945 $Y=1.5495
C988	net3#27	XI1/net6#7	1.24255e-18	$X=6.9225 $Y=0.631
C989	gnd!#17	gnd!#16	4.13731e-18	$X=0.456 $Y=0.2795
C990	vdd!#22	net3#11	1.50723e-18	$X=7.1745 $Y=1.3775
C991	XI1/net14#7	XI1/net6#7	1.15729e-18	$X=6.8955 $Y=0.52
C992	vdd!#5	net3#6	2.85366e-18	$X=7.7055 $Y=1.1645
C993	Cin#9	vdd!#24	5.77566e-18	$X=6.469 $Y=1.1215
C994	B#2	XI0/net6#2	6.73815e-18	$X=1.8295 $Y=0.9465
C995	net9#13	net9#9	6.5697e-18	$X=6.074 $Y=0.9145
C996	Cin#9	XI1/net14#6	2.45768e-17	$X=6.5485 $Y=0.9725
C997	gnd!#14	A#2	4.12613e-18	$X=1.9965 $Y=0.1495
C998	XI1/net6#8	net3#11	4.01633e-18	$X=7.0355 $Y=1.358
C999	XI1/net4#6	XI1/net4#8	2.52996e-18	$X=8.7925 $Y=1.5245
C1000	Cout#2	net9	2.88619e-17	$X=5.807 $Y=0.8125
C1001	XI1/net9#4	S#1	4.3334e-18	$X=9.0915 $Y=0.583
C1002	vdd!#16	XI0/net14	1.62823e-18	$X=2.4865 $Y=1.3915
C1003	vdd!#23	net3#11	4.79544e-18	$X=6.9865 $Y=1.3765
C1004	vdd!#15	vdd!#13	3.27596e-18	$X=3.69 $Y=1.7475
C1005	XI0/net14#5	B#5	1.16147e-18	$X=0.897 $Y=0.7895
C1006	Cin#17	vdd!#10	4.37738e-18	$X=5.705 $Y=1.514
C1007	XI1/net14#8	net3#11	2.0303e-18	$X=6.916 $Y=1.363
C1008	XI0/net6#6	A#4	5.21776e-18	$X=0.3825 $Y=0.942
C1009	gnd!#17	A#12	2.74472e-18	$X=0.1635 $Y=0.781
C1010	vdd!#25	vdd!#24	5.76953e-18	$X=6.1585 $Y=1.303
C1011	XI0/net14#6	B#4	3.29595e-18	$X=0.8405 $Y=0.8045
C1012	net9#13	Cout#1	1.62627e-18	$X=6.0445 $Y=0.8075
C1013	XI0/net6#9	net3#16	7.29039e-19	$X=2.1605 $Y=0.965
C1014	gnd!#5	XI1/net9#2	1.39961e-17	$X=7.838 $Y=0.2705
C1015	Cout#5	net9#9	7.66883e-19	$X=6.0895 $Y=0.892
C1016	XI1/net14#5	vdd!#23	2.31903e-18	$X=6.952 $Y=1.1735
C1017	gnd!#22	A#9	1.18327e-18	$X=4.9645 $Y=0.4365
C1018	XI0/net14#10	gnd!#14	6.32279e-19	$X=1.95 $Y=0.47
C1019	XI0/net4#2	XI0/net4#4	1.04818e-17	$X=1.737 $Y=1.5295
C1020	XI1/net9#4	S#2	3.30657e-18	$X=8.8105 $Y=0.718
C1021	A#2	XI0/net14#3	1.85206e-18	$X=2.3665 $Y=0.6725
C1022	XI0/net6#5	XI0/net6#6	7.32946e-18	$X=0.5795 $Y=0.94
C1023	gnd!#7	gnd!#6	4.18097e-18	$X=6.6405 $Y=0.1515
C1024	net3#27	XI1/net14#7	1.72489e-18	$X=6.739 $Y=0.647
C1025	Cin#19	vdd!#16	7.67304e-18	$X=3.042 $Y=1.687
C1026	XI1/net14#7	gnd!#20	1.03046e-17	$X=6.7835 $Y=0.4925
C1027	net10#8	A#9	3.40721e-18	$X=4.676 $Y=0.4585
C1028	Cout#5	net3#12	1.27295e-18	$X=6.9495 $Y=0.4945
C1029	XI0/net14#8	vdd!#32	5.59587e-18	$X=1.1845 $Y=1.357
C1030	vdd!#23	Cin#10	2.96986e-18	$X=6.6445 $Y=1.373
C1031	A#2	XI0/net6#3	1.6477e-18	$X=2.0035 $Y=0.7615
C1032	B#14	XI0/net14#6	4.13196e-18	$X=0.7045 $Y=0.779
C1033	Cout#5	Cout#1	4.21518e-18	$X=6.0415 $Y=0.6845
C1034	gnd!#13	XI0/net14#4	9.80818e-19	$X=2.472 $Y=0.4535
C1035	XI1/net14#8	Cin#10	4.74217e-18	$X=6.5725 $Y=1.359
C1036	net9	vdd!#25	1.54804e-17	$X=5.852 $Y=0.997
C1037	XI0/net6#5	B#5	3.06243e-18	$X=0.7515 $Y=0.843
C1038	XI1/net9#4	Cin#6	1.00045e-17	$X=8.708 $Y=0.301
C1039	XI1/net9#4	XI1/net6#10	4.04837e-18	$X=8.614 $Y=0.561
C1040	XI0/net6#9	net3#17	1.31053e-18	$X=1.908 $Y=0.9655
C1041	net3#29	XI0/net9#4	4.60348e-19	$X=2.849 $Y=0.406
C1042	net3#18	XI0/net9#3	2.13122e-18	$X=2.503 $Y=0.524
C1043	XI0/net1	gnd!#25	1.8643e-17	$X=2.479 $Y=0.453
C1044	vdd!#24	Cin#10	4.57294e-18	$X=6.521 $Y=1.373
C1045	net10#3	Cout#2	1.69446e-17	$X=5.603 $Y=0.752
C1046	XI0/net6#9	XI0/net4#2	4.65162e-18	$X=1.6195 $Y=1.352
C1047	XI1/net14#4	XI1/net6#2	1.22097e-18	$X=8.43 $Y=0.6875
C1048	gnd!#27	B#5	8.11261e-18	$X=0.7255 $Y=0.6435
C1049	vdd!#3	XI1/net6	2.8958e-18	$X=8.603 $Y=1.3245
C1050	Cout#5	Cin#7	7.06951e-19	$X=6.8755 $Y=0.341
C1051	net9#7	Cin#2	1.23313e-18	$X=3.717 $Y=0.899
C1052	vdd!#25	Cin#10	1.35666e-18	$X=6.3725 $Y=1.3275
C1053	gnd!#23	A#9	1.24471e-18	$X=4.5535 $Y=0.4365
C1054	Cout#3	net9	1.25304e-17	$X=5.793 $Y=0.972
C1055	XI0/net6#5	vdd!#19	2.50529e-18	$X=0.758 $Y=1.2555
C1056	gnd!#17	gnd!#3	5.45861e-18	$X=0.4345 $Y=0.3715
C1057	XI0/net14#6	XI0/net6#2	7.29398e-19	$X=1.6155 $Y=0.899
C1058	XI1/net6#10	Cin#6	2.08234e-18	$X=8.39 $Y=0.545
C1059	XI1/net14#2	XI1/net6#3	3.25335e-18	$X=8.368 $Y=0.869
C1060	XI1/net9#4	XI1/net6#4	5.5252e-19	$X=8.7015 $Y=0.462
C1061	vdd!#17	XI0/net6	2.03182e-18	$X=1.973 $Y=1.425
C1062	XI1/net6#10	XI1/net4#6	5.48754e-18	$X=8.46 $Y=1.2095
C1063	XI0/net4#8	A#1	1.4007e-18	$X=2.848 $Y=1.374
C1064	Cout#5	XI1/net9	4.12108e-19	$X=7.601 $Y=0.5195
C1065	gnd!#21	gnd!#20	3.51807e-18	$X=6.6815 $Y=0.4555
C1066	XI0/net6#5	A#5	8.25258e-19	$X=0.435 $Y=0.9905
C1067	A#12	XI0/net6#6	7.98609e-18	$X=0.2685 $Y=0.9215
C1068	B#19	Cin#19	4.92684e-18	$X=4.1925 $Y=1.0715
C1069	Cout#5	net9#3	6.3112e-19	$X=5.683 $Y=0.482
C1070	net10#8	B#12	1.31359e-18	$X=4.606 $Y=0.449
C1071	net10#6	B#10	2.21064e-18	$X=4.584 $Y=0.785
C1072	Cin#14	XI1/net14#8	1.95189e-18	$X=6.4125 $Y=1.122
C1073	XI0/net14#5	XI0/net6#9	5.41568e-17	$X=1.42 $Y=0.8705
C1074	Cout#3	vdd!#25	2.14395e-17	$X=5.7345 $Y=1.164
C1075	XI0/net6#5	vdd!#33	2.31903e-18	$X=0.752 $Y=1.1735
C1076	S#2	XI1/net4#6	4.43003e-18	$X=8.6705 $Y=1.2225
C1077	XI0/net6#5	XI0/net14#6	4.42727e-18	$X=0.8665 $Y=0.887
C1078	net10#6	A#7	2.95624e-17	$X=4.799 $Y=0.849
C1079	net3#29	XI0/net14#10	1.4418e-18	$X=2.448 $Y=0.737
C1080	A#17	A#13	5.84477e-18	$X=5.0295 $Y=0.9095
C1081	Cin#19	XI0/net4#4	1.40814e-18	$X=2.17 $Y=1.5185
C1082	Cout#5	gnd!#19	2.80018e-18	$X=7.4145 $Y=0.476
C1083	vdd!#25	net9#4	3.98604e-18	$X=5.758 $Y=1.1895
C1084	XI1/net4#4	XI1/net4#6	2.52833e-18	$X=8.3065 $Y=1.5245
C1085	net9#5	net10#8	1.27381e-18	$X=4.361 $Y=0.5555
C1086	vdd!#3	XI1/net14	3.40265e-18	$X=8.153 $Y=1.365
C1087	net10#3	Cout#3	7.76014e-18	$X=5.5005 $Y=0.9785
C1088	XI0/net4#8	XI0/net14	9.85592e-19	$X=2.581 $Y=1.401
C1089	net3#6	XI1/net14#3	4.40419e-18	$X=7.9145 $Y=0.9675
C1090	XI1/net9#2	Cin#6	3.96963e-18	$X=8.184 $Y=0.3005
C1091	Cout#3	net9#4	2.54511e-18	$X=5.7145 $Y=1.1715
C1092	gnd!#23	B#12	3.39296e-18	$X=4.495 $Y=0.429
C1093	net9#6	Cin#1	2.9859e-17	$X=3.795 $Y=0.8355
C1094	Cin#19	vdd!#30	1.70509e-18	$X=3.5835 $Y=1.343
C1095	vdd!#26	net9#4	1.47237e-18	$X=5.6705 $Y=1.1895
C1096	S#3	XI1/net4#6	4.21842e-18	$X=8.4075 $Y=1.2
C1097	net10#3	vdd!#26	1.28419e-17	$X=5.4075 $Y=1.018
[...]
C1451	net3#27	Cin#7	5.71251e-19	$X=6.875 $Y=0.619
C1452	net3	Cin#2	5.74786e-19	$X=3.637 $Y=1.0515
C1453	net3#3	Cin#2	5.801e-19	$X=3.5955 $Y=0.847
C1454	Cin#19	net3#3	6.23027e-19	$X=3.4945 $Y=0.934
C1455	Cin#19	net3#14	7.53398e-19	$X=3.31 $Y=0.891
C1456	Cin#19	net3#25	7.80815e-19	$X=3.2795 $Y=0.731
C1457	net3#31	Cin#8	8.37547e-19	$X=6.556 $Y=0.922
C1458	Cin#19	net3#15	1.0288e-18	$X=2.969 $Y=0.8635
C1459	Cin#15	net3#3	1.13402e-18	$X=3.636 $Y=0.9185
C1460	Cout#5	vdd!#24	4.46041e-19	$X=6.374 $Y=1.2145
C1461	Cout#2	vdd!#9	4.82986e-19	$X=5.779 $Y=1.0725
C1462	net9#17	Cin#14	3.53869e-19	$X=6.3 $Y=1.034
C1463	Cin#19	net9#6	4.36747e-19	$X=3.767 $Y=0.77
C1464	net9#4	Cin#8	4.79731e-19	$X=6.1325 $Y=1.07
C1465	net9#4	Cin#9	4.98003e-19	$X=6.0465 $Y=1.1095
C1466	Cin#14	net9#4	5.1239e-19	$X=6.023 $Y=1.12
C1467	net9#5	Cin#2	5.59365e-19	$X=3.8855 $Y=0.7355
C1468	net9#2	Cin#7	5.9006e-19	$X=6.102 $Y=0.6715
C1469	net9#9	Cin#8	6.42913e-19	$X=6.2945 $Y=0.93
C1470	net9#2	Cin#9	6.49918e-19	$X=6.132 $Y=0.917
C1471	Cin#17	net9	6.89836e-19	$X=5.9175 $Y=0.9545
C1472	net9#5	Cin#3	7.01547e-19	$X=3.81 $Y=0.55
C1473	net9#11	Cin#11	7.5928e-19	$X=4.03 $Y=0.7995
C1474	net9#17	Cin#19	8.90831e-19	$X=5.348 $Y=1.104
C1475	XI0/net6#7	B#4	1.69798e-19	$X=0.711 $Y=0.719
C1476	XI0/net6#6	B#2	1.72242e-19	$X=1.0025 $Y=0.9525
C1477	B#17	XI0/net6#4	1.81352e-19	$X=1.713 $Y=0.5445
C1478	XI0/net6#6	B#5	2.12073e-19	$X=0.6125 $Y=0.8485
C1479	XI0/net6#3	B#3	2.44417e-19	$X=1.3935 $Y=1.0115
C1480	XI0/net6#3	B#4	2.44417e-19	$X=1.12 $Y=0.8375
C1481	XI0/net6#8	B#3	3.00499e-19	$X=0.826 $Y=1.142
C1482	XI0/net6#5	B#4	4.09049e-19	$X=0.8075 $Y=0.8225
C1483	XI0/net6#9	B#3	4.8356e-19	$X=1.1725 $Y=1.025
C1484	B	XI0/net6#7	5.83765e-19	$X=0.6315 $Y=0.4975
C1485	Cout#1	net3#8	2.17507e-19	$X=6.6405 $Y=0.7535
C1486	Cout#1	net3#9	2.99195e-19	$X=6.453 $Y=0.7385
C1487	Cout#5	net3#10	4.80206e-19	$X=7.573 $Y=0.563
C1488	Cout#5	net3#24	4.83871e-19	$X=6.7205 $Y=0.7015
C1489	Cout#5	net3#9	5.54185e-19	$X=6.8415 $Y=0.7675
C1490	XI0/net14#8	B#2	5.35229e-19	$X=1.315 $Y=1.0945
C1491	gnd!#24	gnd!#23	7.4355e-19	$X=3.9345 $Y=0.39
C1492	gnd!#23	gnd!#22	7.75417e-19	$X=4.934 $Y=0.39
C1493	gnd!#18	gnd!	8.41322e-19	$X=8.759 $Y=0.4555
C1494	Cout#5	net9	2.75547e-19	$X=5.8885 $Y=0.8725
C1495	net9#17	Cout#1	2.75705e-19	$X=6.0335 $Y=0.722
C1496	net9#13	Cout#2	3.2077e-19	$X=5.935 $Y=0.8285
C1497	net9#13	Cout#3	4.87615e-19	$X=5.95 $Y=0.9655
C1498	Cout#2	net10#4	3.17498e-19	$X=5.605 $Y=0.536
C1499	gnd!#20	net3#10	4.4368e-19	$X=7.4115 $Y=0.5185
C1500	gnd!#6	net3#7	4.97693e-19	$X=7.133 $Y=0.8375
C1501	gnd!#21	net3#12	5.09898e-19	$X=6.8395 $Y=0.477
C1502	gnd!#12	net3#15	6.24914e-19	$X=2.9605 $Y=0.5675
C1503	net3#31	gnd!#21	6.50626e-19	$X=6.4785 $Y=0.4765
C1504	net3#31	gnd!#9	6.54298e-19	$X=5.7965 $Y=0.2745
C1505	net3#29	gnd!#10	6.63279e-19	$X=4.007 $Y=0.2055
C1506	gnd!#5	net3#6	7.09885e-19	$X=7.706 $Y=0.7685
C1507	gnd!#19	net3#6	8.63648e-19	$X=7.683 $Y=0.7165
C1508	vdd!#31	vdd!	1.43108e-18	$X=3.0365 $Y=1.3955
C1509	vdd!#32	vdd!	1.45748e-18	$X=1.4585 $Y=1.3955
C1510	vdd!#33	vdd!	1.47408e-18	$X=0.744 $Y=1.391
C1511	vdd!#29	vdd!	1.50041e-18	$X=3.8465 $Y=1.299
C1512	vdd!#9	vdd!#24	1.57133e-18	$X=6.1325 $Y=1.5305
C1513	vdd!#33	vdd!#32	1.64139e-18	$X=1.0745 $Y=1.392
C1514	vdd!#22	vdd!	1.70674e-18	$X=7.613 $Y=1.3955
C1515	net9#11	gnd!#10	6.49152e-19	$X=4.076 $Y=0.5205
C1516	gnd!#3	net9#2	7.90041e-19	$X=5.722 $Y=0.8055
C1517	gnd!#21	net9#3	8.22094e-19	$X=5.9565 $Y=0.4635
C1518	net3#25	vdd!#15	2.76604e-19	$X=3.293 $Y=1.0105
C1519	vdd!#16	net3	2.96785e-19	$X=3.3645 $Y=1.386
C1520	vdd!#24	net3#11	4.47775e-19	$X=6.865 $Y=1.3765
C1521	net3#9	vdd!#6	4.82734e-19	$X=6.929 $Y=1.007
C1522	vdd!#23	net3#5	5.20876e-19	$X=7.518 $Y=1.3795
C1523	net3#8	vdd!	6.88621e-19	$X=7.0075 $Y=0.791
C1524	net3#24	vdd!#6	7.06026e-19	$X=6.82 $Y=0.94
C1525	vdd!#31	net3	7.25131e-19	$X=3.357 $Y=1.3315
C1526	net3#21	vdd!#30	1.04847e-18	$X=2.858 $Y=1.3315
C1527	net3#21	vdd!	1.07044e-18	$X=2.5745 $Y=1.3515
C1528	net3#17	vdd!#17	1.13119e-18	$X=2.0365 $Y=1.169
C1529	net3#3	vdd!#15	1.27321e-18	$X=3.4375 $Y=1.2195
C1530	net3#17	vdd!#16	1.32469e-18	$X=2.214 $Y=1.15
C1531	vdd!#3	net3	1.33253e-18	$X=3.5545 $Y=1.307
C1532	vdd!#5	net3#7	1.36304e-18	$X=7.294 $Y=1.1935
C1533	vdd!#15	net3	1.36621e-18	$X=3.491 $Y=1.4665
C1534	gnd!#23	net10#4	3.71317e-19	$X=5.1205 $Y=0.429
C1535	XI1/net14#9	Cin#7	4.20856e-19	$X=7.5355 $Y=0.646
C1536	XI1/net14#9	Cin#6	4.67835e-19	$X=8.068 $Y=0.66
C1537	XI1/net14#5	Cin#7	5.19571e-19	$X=7.074 $Y=0.6705
C1538	vdd!#24	net9#4	4.23278e-19	$X=5.907 $Y=1.234
C1539	net9#6	vdd!#3	4.65067e-19	$X=3.7615 $Y=0.711
C1540	net3#27	net3#12	2.75294e-19	$X=6.9215 $Y=0.581
C1541	net3#29	net3#2	2.87529e-19	$X=3.522 $Y=0.8015
C1542	net3#29	net3#19	3.37822e-19	$X=3.2405 $Y=0.6435
C1543	net3#27	net3#8	3.5144e-19	$X=6.926 $Y=0.76
C1544	net3#16	net3	5.10186e-19	$X=3.148 $Y=1.1675
C1545	net3#19	net3#2	6.81932e-19	$X=3.3815 $Y=0.733
C1546	net3#29	net3#14	7.07632e-19	$X=3.2615 $Y=0.806
C1547	net3#24	net3#8	7.72261e-19	$X=6.9335 $Y=0.7625
C1548	net3#31	net3#24	7.7331e-19	$X=6.7805 $Y=0.7035
C1549	net3#25	net3#20	8.15154e-19	$X=3.1465 $Y=0.612
C1550	net3#20	net3#4	8.51177e-19	$X=3.3405 $Y=0.475
C1551	net3#8	net3#6	9.12658e-19	$X=7.22 $Y=0.8435
C1552	net3#8	net3#10	9.3154e-19	$X=7.289 $Y=0.701
C1553	net3#7	net3#6	9.44593e-19	$X=7.4365 $Y=1.018
C1554	net3#24	net3#12	1.02601e-18	$X=6.929 $Y=0.5735
C1555	net3#18	net3#15	1.1024e-18	$X=2.4975 $Y=0.6765
C1556	net3#29	net3#20	1.11059e-18	$X=3.071 $Y=0.521
C1557	net3#12	net3#10	1.22397e-18	$X=7.3045 $Y=0.516
C1558	XI1/net6#8	Cin#8	4.20373e-19	$X=6.676 $Y=1.034
C1559	XI1/net6#8	Cin#10	4.58913e-19	$X=6.686 $Y=1.354
C1560	XI1/net6#6	Cin#8	5.57284e-19	$X=6.746 $Y=0.912
C1561	net9#6	net3#4	2.20096e-19	$X=3.604 $Y=0.535
C1562	net9#9	net3#8	3.08351e-19	$X=6.5765 $Y=0.8485
C1563	net3#29	net9#7	3.25441e-19	$X=3.547 $Y=1.005
C1564	net3#25	net9#8	4.21251e-19	$X=3.4285 $Y=0.586
C1565	net9#11	net3#19	4.5659e-19	$X=3.5745 $Y=0.6465
C1566	net3#29	net9#8	4.84864e-19	$X=3.689 $Y=0.461
C1567	net3#25	net9#5	6.02241e-19	$X=3.572 $Y=0.6685
C1568	net3#31	net9#3	6.38339e-19	$X=5.7325 $Y=0.4825
C1569	net3#31	net9#13	6.46623e-19	$X=6.109 $Y=0.887
C1570	net9#7	net3#2	8.44288e-19	$X=3.5435 $Y=0.866
C1571	Cout	XI1/net14#4	4.55048e-19	$X=8.2575 $Y=0.5155
C1572	net9#15	net9#5	2.72157e-19	$X=4.0905 $Y=0.6525
C1573	net9#17	net9#9	2.97982e-19	$X=6.083 $Y=0.9145
C1574	net9#11	net9#8	8.46359e-19	$X=3.916 $Y=0.5645
C1575	net9#11	net9#6	9.17843e-19	$X=3.9235 $Y=0.661
C1576	gnd!#16	XI0/net6#6	3.48207e-19	$X=0.5205 $Y=0.7155
C1577	XI0/net6#9	gnd!#3	3.54492e-19	$X=1.6985 $Y=0.9285
C1578	XI0/net6#9	gnd!#26	5.19049e-19	$X=1.4865 $Y=0.628
C1579	gnd!#13	XI0/net6#4	5.24802e-19	$X=2.066 $Y=0.483
C1580	gnd!#14	XI0/net6#4	5.3585e-19	$X=1.9505 $Y=0.45
C1581	Cout	XI1/net6#3	4.58264e-19	$X=8.6165 $Y=0.738
C1582	net10#8	net9#3	2.06239e-19	$X=5.2725 $Y=0.4585
C1583	net9#17	net10#3	2.11639e-19	$X=5.554 $Y=0.87
C1584	net9#17	net10	2.76554e-19	$X=5.585 $Y=1.15
C1585	net9#17	net10#4	3.52706e-19	$X=5.5855 $Y=0.503
C1586	net9#8	net10#8	3.57616e-19	$X=4.2345 $Y=0.4425
C1587	net9	net10#2	3.86502e-19	$X=5.652 $Y=0.851
C1588	S#1	XI1/net14#4	1.87334e-19	$X=8.511 $Y=0.5915
C1589	S#6	XI1/net14	2.94476e-19	$X=8.3555 $Y=1.357
C1590	XI1/net6#3	S#3	3.85256e-19	$X=8.478 $Y=0.8595
C1591	XI0/net14#10	vdd!#16	2.06576e-19	$X=2.298 $Y=1.1355
C1592	vdd!#30	XI0/net14	3.28912e-19	$X=2.651 $Y=1.313
C1593	XI0/net14#5	vdd!#3	5.16357e-19	$X=1.389 $Y=0.8235
C1594	net3#25	XI0/net6#4	2.04361e-19	$X=2.5805 $Y=0.6005
C1595	net3#21	XI0/net6	2.94476e-19	$X=2.1555 $Y=1.357
C1596	net3#17	XI0/net6	5.70213e-19	$X=2.0335 $Y=1.219
C1597	XI0/net4#2	vdd!#19	2.46379e-19	$X=1.3985 $Y=1.5785
C1598	gnd!#18	XI1/net14#4	2.18326e-19	$X=8.399 $Y=0.5025
C1599	gnd!#6	XI1/net14#6	4.33135e-19	$X=6.725 $Y=0.701
C1600	XI1/net14#9	gnd!#19	5.19049e-19	$X=7.6865 $Y=0.628
C1601	XI1/net14#9	gnd!#5	5.37714e-19	$X=7.725 $Y=0.6415
C1602	net3#20	XI0/net14#4	2.75436e-19	$X=2.644 $Y=0.495
C1603	net3#25	XI0/net14#3	2.92726e-19	$X=2.843 $Y=0.73
C1604	net3#14	XI0/net14#2	2.93343e-19	$X=2.7725 $Y=0.841
C1605	net3#15	XI0/net14#2	3.31168e-19	$X=2.6005 $Y=0.827
C1606	XI0/net14#3	net3#17	3.85256e-19	$X=2.278 $Y=0.8595
C1607	XI1/net14#5	vdd!#7	3.07734e-19	$X=6.725 $Y=1.325
C1608	XI0/net9#4	net3#21	2.20588e-19	$X=2.6135 $Y=0.8975
C1609	XI0/net9#2	net3#17	2.44341e-19	$X=1.9815 $Y=0.7425
C1610	XI1/net6#5	vdd!#5	5.51274e-19	$X=7.528 $Y=1.139
C1611	XI1/net4#2	vdd!#6	2.46379e-19	$X=7.59 $Y=1.5805
C1612	XI1/net4#4	vdd!#5	2.99836e-19	$X=7.9465 $Y=1.585
C1613	net3#27	XI1/net14#4	1.8336e-19	$X=7.5325 $Y=0.617
C1614	XI1/net14#3	net3#7	2.44417e-19	$X=7.5935 $Y=1.0115
C1615	XI1/net14#3	net3#8	2.44417e-19	$X=7.32 $Y=0.8375
C1616	XI1/net14#6	net3#9	2.68174e-19	$X=6.8145 $Y=0.8475
C1617	XI1/net14#8	net3#7	3.00499e-19	$X=7.026 $Y=1.142
C1618	XI1/net14#5	net3#8	3.99382e-19	$X=7.0075 $Y=0.8225
C1619	XI1/net14#9	net3#7	4.8356e-19	$X=7.3725 $Y=1.025
C1620	net3#31	XI1/net6#7	4.20906e-19	$X=7.053 $Y=0.5225
C1621	XI1/net6#8	net3#6	5.35229e-19	$X=7.515 $Y=1.0945
C1622	XI1/net14#8	net9#4	2.64042e-19	$X=5.9525 $Y=1.2215
C1623	XI1/net14#6	net9#2	3.88653e-19	$X=6.145 $Y=0.8665
C1624	XI1/net14#5	net9#9	5.95445e-19	$X=6.2805 $Y=0.924
C1625	XI0/net6#3	XI0/net14#2	2.37985e-19	$X=2.265 $Y=0.885
C1626	XI0/net14#6	XI0/net6#4	2.65989e-19	$X=1.614 $Y=0.64
C1627	XI0/net6#7	XI0/net14#6	3.1681e-19	$X=0.6835 $Y=0.69
C1628	XI0/net14#8	XI0/net6	3.45786e-19	$X=1.7165 $Y=1.3485
C1629	XI0/net4#4	XI0/net14	1.99093e-19	$X=2.257 $Y=1.392
C1630	XI0/net14#10	XI0/net4	2.3321e-19	$X=1.83 $Y=1.1315
C1631	XI0/net4#2	XI0/net14#8	3.66952e-19	$X=1.4005 $Y=1.463
C1632	XI1/net14#3	XI1/net6#2	2.37985e-19	$X=8.465 $Y=0.885
C1633	XI1/net6#6	XI1/net14#4	2.4594e-19	$X=7.814 $Y=0.64
C1634	XI1/net6#8	XI1/net14	3.45786e-19	$X=7.9165 $Y=1.3485
C1635	XI1/net4#4	XI1/net6	1.99093e-19	$X=8.457 $Y=1.392
C1636	XI1/net6#10	XI1/net4	2.3321e-19	$X=8.03 $Y=1.1315
C1637	XI1/net4#4	XI1/net6#8	2.39283e-19	$X=7.6795 $Y=1.4365
C1638	A	gnd!	1.31443e-17	$X=1.692 $Y=1.4945
C1639	B	gnd!	3.93533e-17	$X=1.716 $Y=0.2995
C1640	Cin	gnd!	5.61568e-18	$X=1.092 $Y=1.6395
C1641	Cout	gnd!	4.41519e-17	$X=8.779 $Y=0.3995
C1642	S	gnd!	2.73314e-17	$X=9.6165 $Y=0.7945
C1643	vdd!	gnd!	1.61725e-18	$X=4.719 $Y=1.5445
C1644	XI4/net9	gnd!	5.2224e-21	$X=4.5845 $Y=0.4145
C1645	XI3/net9	gnd!	2.82381e-20	$X=5.584 $Y=0.4145
C1646	XI2/net9	gnd!	3.5041e-20	$X=3.5845 $Y=0.4145
C1647	Cin#5	gnd!	4.75612e-18	$X=9.1265 $Y=1.245
C1648	XI1/net6	gnd!	1.37502e-19	$X=8.6615 $Y=1.3175
C1649	XI1/net14	gnd!	3.10375e-19	$X=8.1965 $Y=1.36
C1650	net3#5	gnd!	6.49917e-18	$X=7.7315 $Y=1.376
C1651	net3#11	gnd!	7.61415e-19	$X=7.0115 $Y=1.372
C1652	Cin#10	gnd!	6.74483e-19	$X=6.5465 $Y=1.367
C1653	net9#4	gnd!	4.25342e-19	$X=5.7365 $Y=1.1855
C1654	net10	gnd!	3.53028e-19	$X=5.5315 $Y=1.1785
C1655	A#10	gnd!	4.38831e-19	$X=4.737 $Y=1.1855
C1656	B#9	gnd!	1.98028e-19	$X=4.532 $Y=1.1785
C1657	Cin#4	gnd!	1.24326e-18	$X=3.737 $Y=1.3055
C1658	net3	gnd!	6.85303e-19	$X=3.532 $Y=1.2985
C1659	A#1	gnd!	1.00067e-18	$X=2.927 $Y=1.245
C1660	XI0/net14	gnd!	1.14129e-19	$X=2.462 $Y=1.3175
C1661	XI0/net6	gnd!	4.01375e-19	$X=1.997 $Y=1.36
C1662	B#1	gnd!	5.98578e-18	$X=1.532 $Y=1.376
C1663	B#7	gnd!	5.92871e-19	$X=0.812 $Y=1.372
C1664	A#6	gnd!	3.62345e-19	$X=0.347 $Y=1.367
C1665	Cin#6	gnd!	5.39908e-17	$X=8.4705 $Y=0.232
C1666	XI1/net6#4	gnd!	6.99202e-18	$X=8.6615 $Y=0.487
C1667	XI1/net14#4	gnd!	1.1615e-17	$X=8.1965 $Y=0.5295
C1668	net3#10	gnd!	1.76368e-17	$X=7.7315 $Y=0.5595
C1669	net3#12	gnd!	7.84981e-18	$X=7.0115 $Y=0.487
C1670	Cin#7	gnd!	4.05105e-17	$X=7.2025 $Y=0.232
C1671	net9#3	gnd!	1.06334e-17	$X=5.6365 $Y=0.4695
C1672	net10#4	gnd!	8.25335e-18	$X=5.5315 $Y=0.453
C1673	A#9	gnd!	1.41643e-17	$X=4.637 $Y=0.4695
C1674	B#12	gnd!	8.07477e-18	$X=4.532 $Y=0.453
C1675	Cin#3	gnd!	1.04562e-17	$X=3.637 $Y=0.4695
C1676	net3#4	gnd!	4.13629e-18	$X=3.532 $Y=0.453
C1677	A#2	gnd!	4.23194e-17	$X=2.271 $Y=0.232
C1678	XI0/net14#4	gnd!	6.58977e-18	$X=2.462 $Y=0.487
C1679	XI0/net6#4	gnd!	1.21074e-17	$X=1.997 $Y=0.5295
C1680	B#6	gnd!	1.1539e-17	$X=1.532 $Y=0.5595
C1681	B#8	gnd!	7.12887e-18	$X=0.812 $Y=0.487
C1682	A#3	gnd!	4.64415e-17	$X=1.003 $Y=0.232
C1683	XI1/net6#3	gnd!	6.72045e-18	$X=8.5915 $Y=0.7895
C1684	XI1/net14#3	gnd!	1.44663e-18	$X=8.1035 $Y=0.9595
C1685	net3#9	gnd!	4.95145e-18	$X=6.935 $Y=0.7895
C1686	Cin#9	gnd!	2.79844e-19	$X=6.477 $Y=1.0045
C1687	net9	gnd!	8.04961e-19	$X=5.859 $Y=0.9095
C1688	net10#3	gnd!	1.00087e-17	$X=5.3835 $Y=0.8545
C1689	A#7	gnd!	3.40073e-19	$X=4.822 $Y=0.9095
C1690	B#11	gnd!	2.26342e-18	$X=4.4525 $Y=0.8795
C1691	Cin#1	gnd!	7.1567e-19	$X=3.823 $Y=0.9095
C1692	net3#3	gnd!	3.43415e-18	$X=3.443 $Y=0.8795
C1693	XI0/net14#3	gnd!	7.2631e-18	$X=2.392 $Y=0.7895
C1694	XI0/net6#3	gnd!	1.70916e-18	$X=1.904 $Y=0.9595
C1695	B#5	gnd!	5.10249e-18	$X=0.7345 $Y=0.7895
C1696	net3#31	gnd!	5.37507e-17	$X=6.6615 $Y=0.6095
C1697	net9#17	gnd!	9.25992e-18	$X=6.0275 $Y=0.9145
C1698	A#21	gnd!	1.20205e-17	$X=5.004 $Y=1.0555
C1699	net9#15	gnd!	9.73116e-18	$X=4.358 $Y=0.6445
C1700	net3#29	gnd!	4.74907e-17	$X=3.392 $Y=0.583
C1701	A#19	gnd!	1.63857e-17	$X=0.1805 $Y=0.892
C1702	net3#27	gnd!	2.28019e-19	$X=6.794 $Y=0.7145
C1703	Cin#17	gnd!	1.84879e-18	$X=6.259 $Y=1.2195
C1704	net9#13	gnd!	6.86602e-19	$X=6.054 $Y=0.9145
C1705	Cout#5	gnd!	2.44992e-17	$X=6.109 $Y=0.598
C1706	A#17	gnd!	1.99978e-18	$X=5.004 $Y=0.9095
C1707	B#19	gnd!	2.18549e-17	$X=4.3245 $Y=0.7795
C1708	net9#11	gnd!	8.14042e-19	$X=4.0345 $Y=0.6445
C1709	Cin#15	gnd!	2.25122e-18	$X=4.0095 $Y=0.995
C1710	net3#25	gnd!	5.68096e-19	$X=3.2295 $Y=0.6795
C1711	B#17	gnd!	1.7282e-17	$X=0.507 $Y=0.6105
C1712	A#15	gnd!	1.34938e-18	$X=0.1345 $Y=0.9045
C1713	XI1/net4#8	gnd!	4.30637e-18	$X=8.956 $Y=1.5245
C1714	XI1/net9#4	gnd!	8.5032e-18	$X=8.8785 $Y=0.351
C1715	XI1/net4#6	gnd!	2.34856e-18	$X=8.559 $Y=1.5245
C1716	XI1/net6#10	gnd!	4.40413e-18	$X=8.327 $Y=0.7895
C1717	XI1/net4#4	gnd!	1.4052e-18	$X=8.094 $Y=1.5245
C1718	XI1/net14#9	gnd!	3.62284e-18	$X=7.7865 $Y=0.9595
C1719	XI1/net9#2	gnd!	1.13114e-17	$X=7.977 $Y=0.35
C1720	XI1/net4#2	gnd!	3.11899e-18	$X=7.834 $Y=1.533
C1721	XI1/net6#5	gnd!	5.37818e-18	$X=7.4665 $Y=0.7895
C1722	net3#24	gnd!	2.65103e-18	$X=6.794 $Y=0.7145
C1723	XI1/net14#5	gnd!	2.43248e-19	$X=6.989 $Y=0.9595
C1724	Cin#14	gnd!	3.75294e-19	$X=6.334 $Y=1.0495
C1725	net9#9	gnd!	2.13079e-18	$X=6.088 $Y=0.9145
C1726	Cout#1	gnd!	4.94521e-18	$X=6.034 $Y=0.6945
C1727	A#13	gnd!	2.50827e-18	$X=5.0545 $Y=0.9095
C1728	B#16	gnd!	3.00973e-18	$X=4.3245 $Y=0.822
C1729	net9#5	gnd!	4.69081e-18	$X=4.0345 $Y=0.6545
C1730	Cin#11	gnd!	2.21526e-18	$X=4.027 $Y=0.9145
C1731	net3#19	gnd!	2.51858e-18	$X=3.2295 $Y=0.648
C1732	XI0/net4#8	gnd!	1.69804e-18	$X=2.7565 $Y=1.5245
C1733	XI0/net9#4	gnd!	6.16806e-18	$X=2.679 $Y=0.351
C1734	XI0/net4#6	gnd!	1.42818e-18	$X=2.3595 $Y=1.5245
C1735	XI0/net14#10	gnd!	7.78361e-18	$X=2.1275 $Y=0.7895
C1736	XI0/net4#4	gnd!	1.48942e-18	$X=1.8945 $Y=1.5245
C1737	XI0/net6#9	gnd!	3.89363e-18	$X=1.587 $Y=0.9595
C1738	XI0/net9#2	gnd!	1.1405e-17	$X=1.7775 $Y=0.35
C1739	XI0/net4#2	gnd!	3.04253e-18	$X=1.6345 $Y=1.533
C1740	XI0/net14#5	gnd!	7.95503e-18	$X=1.267 $Y=0.7895
C1741	B#14	gnd!	2.56578e-18	$X=0.5895 $Y=0.7445
C1742	XI0/net6#5	gnd!	4.06144e-19	$X=0.7895 $Y=0.9595
C1743	A#12	gnd!	6.98273e-18	$X=0.1345 $Y=0.917
C1744	vdd!#21	gnd!	1.37502e-19	$X=9.224 $Y=1.3945
C1745	XI1/net4#7	gnd!	4.82929e-18	$X=9.029 $Y=1.3615
C1746	S#6	gnd!	2.46375e-19	$X=8.759 $Y=1.3505
C1747	XI1/net4#5	gnd!	1.62272e-18	$X=8.564 $Y=1.3615
C1748	S#7	gnd!	9.19108e-19	$X=8.294 $Y=1.3505
C1749	XI1/net4#3	gnd!	1.42313e-18	$X=8.099 $Y=1.3615
C1750	XI1/net4	gnd!	4.643e-18	$X=7.829 $Y=1.363
C1751	vdd!#22	gnd!	9.16712e-19	$X=7.634 $Y=1.3945
C1752	XI1/net6#8	gnd!	3.85398e-19	$X=7.109 $Y=1.316
C1753	vdd!#23	gnd!	2.24985e-19	$X=6.914 $Y=1.39
C1754	XI1/net14#8	gnd!	3.24332e-19	$X=6.644 $Y=1.3375
C1755	vdd!#24	gnd!	7.91815e-20	$X=6.449 $Y=1.39
C1756	vdd!#25	gnd!	4.86562e-19	$X=5.834 $Y=1.206
C1757	Cout#3	gnd!	2.19371e-18	$X=5.634 $Y=1.122
C1758	vdd!#27	gnd!	4.32766e-19	$X=4.8345 $Y=1.206
C1759	net10#7	gnd!	4.0056e-18	$X=4.6345 $Y=1.122
C1760	vdd!#28	gnd!	5.83191e-19	$X=4.4345 $Y=1.206
C1761	vdd!#29	gnd!	1.5482e-19	$X=3.8345 $Y=1.296
C1762	net9#7	gnd!	7.91853e-19	$X=3.6345 $Y=1.242
C1763	vdd!#30	gnd!	1.54687e-18	$X=3.4345 $Y=1.296
C1764	vdd!#31	gnd!	1.39299e-19	$X=3.0245 $Y=1.3945
C1765	XI0/net4#7	gnd!	2.00955e-18	$X=2.8295 $Y=1.3615
C1766	net3#21	gnd!	1.55408e-19	$X=2.5595 $Y=1.3505
C1767	XI0/net4#5	gnd!	1.46365e-18	$X=2.3645 $Y=1.3615
C1768	net3#22	gnd!	3.89106e-19	$X=2.0945 $Y=1.3505
C1769	XI0/net4#3	gnd!	1.16946e-18	$X=1.8995 $Y=1.3615
C1770	XI0/net4	gnd!	4.15449e-18	$X=1.6295 $Y=1.363
C1771	vdd!#32	gnd!	7.85391e-19	$X=1.4345 $Y=1.3945
C1772	XI0/net14#8	gnd!	1.45353e-18	$X=0.9095 $Y=1.316
C1773	vdd!#33	gnd!	1.98387e-19	$X=0.7145 $Y=1.39
C1774	XI0/net6#8	gnd!	3.31344e-19	$X=0.4445 $Y=1.3375
C1775	vdd!#20	gnd!	3.50862e-20	$X=0.2495 $Y=1.453
C1776	vdd!#3	gnd!	6.86355e-19	$X=4.813 $Y=1.78
C1777	S#5	gnd!	7.34424e-18	$X=9.224 $Y=0.5125
C1778	XI1/net9#3	gnd!	2.92521e-18	$X=9.029 $Y=0.509
C1779	XI1/net1	gnd!	7.67365e-18	$X=8.564 $Y=0.4495
C1780	S#4	gnd!	5.43922e-18	$X=8.294 $Y=0.543
C1781	XI1/net1#2	gnd!	6.87608e-18	$X=8.099 $Y=0.4495
C1782	XI1/net9	gnd!	1.04214e-17	$X=7.829 $Y=0.5075
C1783	XI1/net6#7	gnd!	1.74805e-18	$X=7.109 $Y=0.5105
C1784	XI1/net14#7	gnd!	2.27725e-18	$X=6.644 $Y=0.532
C1785	Cout#4	gnd!	2.53539e-18	$X=5.734 $Y=0.4425
C1786	net10#8	gnd!	9.86077e-18	$X=4.7345 $Y=0.4425
C1787	net9#8	gnd!	2.06454e-18	$X=3.7345 $Y=0.4425
C1788	net3#20	gnd!	1.92758e-18	$X=3.0245 $Y=0.5125
C1789	XI0/net9#3	gnd!	3.10719e-18	$X=2.8295 $Y=0.509
C1790	XI0/net1	gnd!	6.6762e-18	$X=2.3645 $Y=0.4495
C1791	net3#18	gnd!	4.22673e-18	$X=2.0945 $Y=0.543
C1792	XI0/net1#2	gnd!	5.73278e-18	$X=1.8995 $Y=0.4495
C1793	XI0/net9	gnd!	6.76505e-18	$X=1.6295 $Y=0.5075
C1794	XI0/net14#7	gnd!	1.90216e-18	$X=0.9095 $Y=0.5105
C1795	XI0/net6#7	gnd!	2.71487e-18	$X=0.4445 $Y=0.532
C1796	XI0/net6#6	gnd!	1.99647e-18	$X=0.4495 $Y=0.928
C1797	XI0/net14#6	gnd!	6.65998e-18	$X=0.9145 $Y=0.843
C1798	net3#14	gnd!	2.80489e-18	$X=3.2445 $Y=0.836
C1799	net3#15	gnd!	6.00197e-18	$X=2.8525 $Y=0.7945
C1800	net3#16	gnd!	4.33325e-18	$X=2.5645 $Y=0.969
C1801	net3#17	gnd!	2.63203e-18	$X=2.0995 $Y=0.9695
C1802	net9#6	gnd!	2.94454e-18	$X=3.7395 $Y=0.6885
C1803	net10#6	gnd!	1.27581e-17	$X=4.7395 $Y=0.6885
C1804	Cout#2	gnd!	5.12501e-18	$X=5.739 $Y=0.6885
C1805	XI1/net14#6	gnd!	2.44852e-18	$X=6.649 $Y=0.928
C1806	XI1/net6#6	gnd!	7.12502e-18	$X=7.114 $Y=0.843
C1807	vdd!#5	gnd!	1.95672e-19	$X=7.629 $Y=1.715
C1808	vdd!#6	gnd!	3.97378e-19	$X=6.909 $Y=1.7135
C1809	vdd!#7	gnd!	2.98938e-20	$X=6.444 $Y=1.7135
C1810	vdd!#9	gnd!	4.67164e-19	$X=5.839 $Y=1.661
C1811	vdd!#10	gnd!	2.52854e-19	$X=5.429 $Y=1.661
C1812	vdd!#11	gnd!	3.88931e-19	$X=5.0015 $Y=1.7795
C1813	vdd!#13	gnd!	2.1817e-19	$X=4.002 $Y=1.7795
C1814	vdd!#15	gnd!	2.9087e-19	$X=3.4295 $Y=1.721
C1815	vdd!#16	gnd!	8.48568e-19	$X=2.615 $Y=1.7795
C1816	vdd!#17	gnd!	1.51752e-19	$X=1.8445 $Y=1.7795
C1817	vdd!#19	gnd!	1.15796e-19	$X=0.7095 $Y=1.7135
C1818	S#1	gnd!	1.29505e-17	$X=9.229 $Y=0.7335
C1819	S#2	gnd!	2.78542e-18	$X=8.764 $Y=0.969
C1820	S#3	gnd!	4.45827e-18	$X=8.299 $Y=0.9695
C1821	B#2	gnd!	3.20401e-18	$X=1.532 $Y=0.976
C1822	B#3	gnd!	5.65206e-19	$X=1.003 $Y=1.052
C1823	B#4	gnd!	5.79488e-18	$X=0.812 $Y=0.79
C1824	XI0/net6#2	gnd!	5.30568e-18	$X=1.997 $Y=0.93
C1825	XI0/net14#2	gnd!	8.32198e-18	$X=2.462 $Y=0.845
C1826	A#4	gnd!	4.51202e-18	$X=0.347 $Y=0.95
C1827	net3#2	gnd!	3.90935e-18	$X=3.532 $Y=0.8175
C1828	Cin#2	gnd!	1.30151e-17	$X=3.737 $Y=0.8175
C1829	B#10	gnd!	5.38724e-18	$X=4.532 $Y=0.8175
C1830	A#8	gnd!	1.33599e-17	$X=4.737 $Y=0.8175
C1831	net10#2	gnd!	4.02724e-18	$X=5.5315 $Y=0.8175
C1832	net9#2	gnd!	1.35587e-17	$X=5.7365 $Y=0.8175
C1833	net3#6	gnd!	5.13998e-18	$X=7.7315 $Y=0.976
C1834	net3#7	gnd!	1.04218e-18	$X=7.2025 $Y=1.052
C1835	net3#8	gnd!	5.9116e-18	$X=7.0115 $Y=0.79
C1836	XI1/net14#2	gnd!	5.39495e-18	$X=8.1965 $Y=0.93
C1837	XI1/net6#2	gnd!	7.82081e-18	$X=8.6615 $Y=0.845
C1838	Cin#8	gnd!	4.07638e-18	$X=6.5465 $Y=0.95
C1839	Cin#19	gnd!	6.22842e-18	$X=4.0095 $Y=1.4785
*
*
.ENDS 1_bit_Full_Adder_ver1
*
