*
*
*
*                       LINUX           Mon Sep 30 13:07:07 2024
*
*
*
*  PROGRAM  advgen
*
*  Name           : advgen - Quantus - (64-bit)
*  Version        : 22.1.1-p041
*  Build Date     : Mon Apr 17 07:36:05 PDT 2023
*
*  HSPICE LIBRARY
*
*  QRC_TECH_DIR /home/viterbi/01/ee577/CDS_GPDK45/gpdk045_v_5_0/qrc/typical 
*
*!LENGTH_UNITS METERS
*
*
*

*
.SUBCKT INV_1X gnd! in out vdd!
*
*
*  caps2d version: 10
*
*
*       TRANSISTOR CARDS
*
*
MMNM0	out#2	in#4	gnd!#3	gnd!	g45n1svt	L=4.5e-08
+ W=1.2e-07
+ AD=1.68e-14	AS=1.68e-14	PD=5.2e-07	PS=5.2e-07
+ fw=1.2e-07 sa=1.4e-07 sb=1.4e-07 sca=16.6908 scb=0.0179614 scc=0.00130074
MMPM0	out#3	in#1	vdd!#3	vdd!	g45p1svt	L=4.5e-08
+ W=2.4e-07
+ AD=3.36e-14	AS=3.36e-14	PD=7.6e-07	PS=7.6e-07
+ fw=2.4e-07 sa=1.4e-07 sb=1.4e-07 sca=22.7196 scb=0.02183 scc=0.00151987
*
*
*       RESISTOR AND CAP/DIODE CARDS
*
Rk1	in#3	in	45.101555	$metal1_conn	$W=1.15e-07
+ $X=0.364 $Y=0.87
Rk2	out	out#1	0.028794	$metal1_conn	$W=1.175e-07
+ $X=0.727 $Y=0.8625
Rk3	out#1	out#2	75.182167	$metal1_conn	$W=9e-08
+ $X=0.67 $Y=0.7275
Rk4	out#1	out#3	31.232193	$metal1_conn	$W=9e-08
+ $X=0.67 $Y=1.0025
Rk6	vdd!	vdd!#3	31.439365	$metal1_conn	$W=9e-08
+ $X=0.465 $Y=1.495
Rk9	gnd!	gnd!#3	75.401878	$metal1_conn	$W=9e-08
+ $X=0.465 $Y=0.3575
Rl1	in#1	in#2	68.944893	$poly_conn	$W=3.9e-08
+ $X=0.5675 $Y=0.9905
Rl2	in#2	in#3	5.112304	$poly_conn	$W=9.4e-08
+ $X=0.54 $Y=0.87
Rl3	in#2	in#4	70.867966	$poly_conn	$W=3.9e-08
+ $X=0.5675 $Y=0.7475
*
*       CAPACITOR CARDS
*
*
C1	out#3	in#1	5.30518e-18	$X=0.5925 $Y=1.187
C2	vdd!#3	in#1	7.26752e-18	$X=0.544 $Y=1.203
C3	in#3	vdd!#3	1.08627e-17	$X=0.468 $Y=0.988
C4	out#2	in#4	3.58863e-18	$X=0.5985 $Y=0.609
C5	out#1	in#1	3.00795e-19	$X=0.617 $Y=1.033
C6	gnd!#3	in#4	5.6942e-18	$X=0.541 $Y=0.59
C7	vdd!#3	out#3	2.17452e-17	$X=0.5745 $Y=1.195
C8	out#1	in#4	5.44296e-19	$X=0.6085 $Y=0.7075
C9	gnd!#3	in#3	1.04566e-17	$X=0.4685 $Y=0.732
C10	in#3	out#1	1.96404e-17	$X=0.5895 $Y=0.866
C11	gnd!#3	out#2	1.27083e-17	$X=0.581 $Y=0.5995
C12	out#1	in#2	5.42333e-18	$X=0.6045 $Y=0.867
C13	in#1	vdd!	1.54667e-17	$X=0.568 $Y=1.201
C14	in#3	vdd!	4.51797e-18	$X=0.472 $Y=0.8875
C15	in	vdd!	9.16454e-18	$X=0.3045 $Y=0.877
C16	out	vdd!	7.18879e-18	$X=0.7675 $Y=0.867
C17	out#3	vdd!	1.42968e-17	$X=0.663 $Y=1.1835
C18	out#1	vdd!	3.45868e-18	$X=0.6685 $Y=0.876
C19	in#2	vdd!	4.81291e-18	$X=0.5675 $Y=0.8755
C20	vdd!#3	vdd!	1.95317e-17	$X=0.4775 $Y=1.2495
C21	gnd!#3	gnd!	1.64845e-17	$X=0.4695 $Y=0.5615
C22	in	gnd!	1.09831e-17	$X=0.3015 $Y=0.869
C23	out	gnd!	6.71906e-18	$X=0.7685 $Y=0.8615
C24	in#4	gnd!	1.56785e-17	$X=0.567 $Y=0.6
C25	in#3	gnd!	6.19494e-18	$X=0.468 $Y=0.869
C26	out#2	gnd!	1.14519e-17	$X=0.6645 $Y=0.627
C27	out#1	gnd!	3.65808e-18	$X=0.6695 $Y=0.864
C28	in#2	gnd!	6.02085e-18	$X=0.567 $Y=0.868
*
*
.ENDS INV_1X
*
