*
*
*
*                       LINUX           Thu Nov  7 22:16:04 2024
*
*
*
*  PROGRAM  advgen
*
*  Name           : advgen - Quantus - (64-bit)
*  Version        : 22.1.1-p041
*  Build Date     : Mon Apr 17 07:36:05 PDT 2023
*
*  HSPICE LIBRARY
*
*  QRC_TECH_DIR /home/viterbi/01/ee577/CDS_GPDK45/gpdk045_v_5_0/qrc/typical 
*
*!LENGTH_UNITS METERS
*
*
*

*
.SUBCKT ph1p3_DFF CLK D Q gnd! vdd!
*
*
*  caps2d version: 10
*
*
*       TRANSISTOR CARDS
*
*
MXI13/MNM0	net3#13	XI13/net2	net11#7	gnd!
+ g45n1svt	L=4.5e-08	W=1.2e-07
+ AD=1.68e-14	AS=1.68e-14	PD=5.2e-07	PS=5.2e-07
+ fw=1.2e-07 sa=1.4e-07 sb=1.4e-07 sca=9.20059 scb=0.00764836 scc=0.000159521
MXI13/XI0/MNM0	XI13/net2#5	net16#11	gnd!#17	gnd!
+ g45n1svt	L=4.5e-08	W=1.2e-07
+ AD=1.68e-14	AS=1.68e-14	PD=5.2e-07	PS=5.2e-07
+ fw=1.2e-07 sa=1.4e-07 sb=1.4e-07 sca=9.20059 scb=0.00764836 scc=0.000159521
MXI18/MNM0	net2#13	XI18/net2	net15#11	gnd!
+ g45n1svt	L=4.5e-08	W=1.2e-07
+ AD=1.68e-14	AS=1.68e-14	PD=5.2e-07	PS=5.2e-07
+ fw=1.2e-07 sa=1.4e-07 sb=1.4e-07 sca=9.20059 scb=0.00764836 scc=0.000159521
MXI18/XI0/MNM0	XI18/net2#3	net16#5	gnd!#19	gnd!
+ g45n1svt	L=4.5e-08	W=1.2e-07
+ AD=1.68e-14	AS=1.68e-14	PD=5.2e-07	PS=5.2e-07
+ fw=1.2e-07 sa=1.4e-07 sb=1.4e-07 sca=9.20059 scb=0.00764836 scc=0.000159521
MXI9/MNM0	net3#8	XI9/net2	D#1	gnd!	g45n1svt
+ L=4.5e-08	W=1.2e-07
+ AD=1.68e-14	AS=1.68e-14	PD=5.2e-07	PS=5.2e-07
+ fw=1.2e-07 sa=1.4e-07 sb=1.4e-07 sca=9.20059 scb=0.00764836 scc=0.000159521
MXI9/XI0/MNM0	XI9/net2#5	CLK#8	gnd!#23	gnd!	g45n1svt
+ L=4.5e-08	W=1.2e-07
+ AD=1.68e-14	AS=1.68e-14	PD=5.2e-07	PS=5.2e-07
+ fw=1.2e-07 sa=1.4e-07 sb=1.4e-07 sca=9.20059 scb=0.00764836 scc=0.000159521
MXI15/MNM0	net2#5	XI15/net2	net13	gnd!	g45n1svt
+ L=4.5e-08	W=1.2e-07
+ AD=1.68e-14	AS=1.68e-14	PD=5.2e-07	PS=5.2e-07
+ fw=1.2e-07 sa=1.4e-07 sb=1.4e-07 sca=9.20059 scb=0.00764836 scc=0.000159521
MXI15/XI0/MNM0	XI15/net2#3	CLK#15	gnd!#22	gnd!	g45n1svt
+ L=4.5e-08	W=1.2e-07
+ AD=1.68e-14	AS=1.68e-14	PD=5.2e-07	PS=5.2e-07
+ fw=1.2e-07 sa=1.4e-07 sb=1.4e-07 sca=9.20059 scb=0.00764836 scc=0.000159521
MXI17/MNM0	Q#10	net2	gnd!#16	gnd!	g45n1svt
+ L=4.5e-08	W=1.2e-07
+ AD=1.68e-14	AS=1.68e-14	PD=5.2e-07	PS=5.2e-07
+ fw=1.2e-07 sa=1.4e-07 sb=1.4e-07 sca=9.90901 scb=0.00884432 scc=0.000225386
MXI12/MNM0	net11#3	net15#4	gnd!#18	gnd!
+ g45n1svt	L=4.5e-08	W=1.2e-07
+ AD=1.68e-14	AS=1.68e-14	PD=5.2e-07	PS=5.2e-07
+ fw=1.2e-07 sa=1.4e-07 sb=1.4e-07 sca=9.90901 scb=0.00884432 scc=0.000225386
MXI11/MNM0	net15#7	net3#4	gnd!#21	gnd!	g45n1svt
+ L=4.5e-08	W=1.2e-07
+ AD=1.68e-14	AS=1.68e-14	PD=5.2e-07	PS=5.2e-07
+ fw=1.2e-07 sa=1.4e-07 sb=1.4e-07 sca=9.90901 scb=0.00884432 scc=0.000225386
MXI16/MNM0	net13#4	Q#1	gnd!#20	gnd!	g45n1svt
+ L=4.5e-08	W=1.2e-07
+ AD=1.68e-14	AS=1.68e-14	PD=5.2e-07	PS=5.2e-07
+ fw=1.2e-07 sa=1.4e-07 sb=1.4e-07 sca=9.90901 scb=0.00884432 scc=0.000225386
MXI19/MNM0	net16#15	CLK#9	gnd!#24	gnd!	g45n1svt
+ L=4.5e-08	W=1.2e-07
+ AD=1.68e-14	AS=1.68e-14	PD=5.2e-07	PS=5.2e-07
+ fw=1.2e-07 sa=1.4e-07 sb=1.4e-07 sca=9.90901 scb=0.00884432 scc=0.000225386
MXI19/MPM0	net16#13	CLK#3	vdd!#19	vdd!	g45p1svt
+ L=4.5e-08	W=2.4e-07
+ AD=3.36e-14	AS=3.36e-14	PD=7.6e-07	PS=7.6e-07
+ fw=2.4e-07 sa=1.4e-07 sb=1.4e-07 sca=15.5779 scb=0.0149308 scc=0.000240309
MXI15/XI0/MPM0	XI15/net2#5	CLK#12	vdd!#15	vdd!	g45p1svt
+ L=4.5e-08	W=2.4e-07
+ AD=3.36e-14	AS=3.36e-14	PD=7.6e-07	PS=7.6e-07
+ fw=2.4e-07 sa=1.4e-07 sb=1.4e-07 sca=10.4559 scb=0.00793674 scc=0.000107477
MXI9/XI0/MPM0	XI9/net2#3	CLK#6	vdd!#22	vdd!	g45p1svt
+ L=4.5e-08	W=2.4e-07
+ AD=3.36e-14	AS=3.36e-14	PD=7.6e-07	PS=7.6e-07
+ fw=2.4e-07 sa=1.4e-07 sb=1.4e-07 sca=10.4559 scb=0.00793674 scc=0.000107477
MXI15/MPM0	net2#7	CLK#11	net13#3	vdd!	g45p1svt
+ L=4.5e-08	W=1.2e-07
+ AD=1.68e-14	AS=1.68e-14	PD=5.2e-07	PS=5.2e-07
+ fw=1.2e-07 sa=1.4e-07 sb=1.4e-07 sca=11.0214 scb=0.00904448 scc=0.000163241
MXI9/MPM0	net3#10	CLK#1	D#2	vdd!	g45p1svt
+ L=4.5e-08	W=1.2e-07
+ AD=1.68e-14	AS=1.68e-14	PD=5.2e-07	PS=5.2e-07
+ fw=1.2e-07 sa=1.4e-07 sb=1.4e-07 sca=11.0214 scb=0.00904448 scc=0.000163241
MXI16/MPM0	net13#6	Q#4	vdd!#14	vdd!	g45p1svt
+ L=4.5e-08	W=2.4e-07
+ AD=3.36e-14	AS=3.36e-14	PD=7.6e-07	PS=7.6e-07
+ fw=2.4e-07 sa=1.4e-07 sb=1.4e-07 sca=10.6403 scb=0.00827174 scc=0.000129767
MXI11/MPM0	net15#5	net3	vdd!#25	vdd!	g45p1svt
+ L=4.5e-08	W=2.4e-07
+ AD=3.36e-14	AS=3.36e-14	PD=7.6e-07	PS=7.6e-07
+ fw=2.4e-07 sa=1.4e-07 sb=1.4e-07 sca=10.6403 scb=0.00827174 scc=0.000129767
MXI18/XI0/MPM0	XI18/net2#5	net16#2	vdd!#13	vdd!
+ g45p1svt	L=4.5e-08	W=2.4e-07
+ AD=3.36e-14	AS=3.36e-14	PD=7.6e-07	PS=7.6e-07
+ fw=2.4e-07 sa=1.4e-07 sb=1.4e-07 sca=10.4559 scb=0.00793674 scc=0.000107477
MXI12/MPM0	net11#4	net15	vdd!#29	vdd!	g45p1svt
+ L=4.5e-08	W=2.4e-07
+ AD=3.36e-14	AS=3.36e-14	PD=7.6e-07	PS=7.6e-07
+ fw=2.4e-07 sa=1.4e-07 sb=1.4e-07 sca=10.6403 scb=0.00827174 scc=0.000129767
MXI18/MPM0	net2#11	net16	net15#14	vdd!	g45p1svt
+ L=4.5e-08	W=1.2e-07
+ AD=1.68e-14	AS=1.68e-14	PD=5.2e-07	PS=5.2e-07
+ fw=1.2e-07 sa=1.4e-07 sb=1.4e-07 sca=11.0214 scb=0.00904448 scc=0.000163241
MXI13/XI0/MPM0	XI13/net2#3	net16#7	vdd!#32	vdd!
+ g45p1svt	L=4.5e-08	W=2.4e-07
+ AD=3.36e-14	AS=3.36e-14	PD=7.6e-07	PS=7.6e-07
+ fw=2.4e-07 sa=1.4e-07 sb=1.4e-07 sca=10.6253 scb=0.00797597 scc=0.000107482
MXI17/MPM0	Q#9	net2#4	vdd!#1	vdd!	g45p1svt	L=4.5e-08
+ W=2.4e-07
+ AD=3.36e-14	AS=3.36e-14	PD=7.6e-07	PS=7.6e-07
+ fw=2.4e-07 sa=1.4e-07 sb=1.4e-07 sca=15.7239 scb=0.0151885 scc=0.000250442
MXI13/MPM0	net3#11	net16#6	net11#5	vdd!
+ g45p1svt	L=4.5e-08	W=1.2e-07
+ AD=1.68e-14	AS=1.68e-14	PD=5.2e-07	PS=5.2e-07
+ fw=1.2e-07 sa=1.4e-07 sb=1.4e-07 sca=18.1453 scb=0.0194268 scc=0.000476439
*
*
*       RESISTOR AND CAP/DIODE CARDS
*
Ri1	net16#26	net16#29	1.593913	$metal3_conn
+ $W=9e-08	$X=2.46 $Y=1.09
Ri2	net16#29	net16#22	0.867798	$metal3_conn
+ $W=1e-07	$X=0.9875 $Y=1.09
Ri3	net16#29	net16#24	2.102297	$metal3_conn
+ $W=9e-08	$X=2.0925 $Y=-0.82
Ri4	net2#16	net2#14	2.787057	$metal3_conn
+ $W=9.5e-08	$X=1.6275 $Y=-1.01
Ri5	net3#16	net3#14	2.185697	$metal3_conn
+ $W=9.65e-08	$X=3.21 $Y=0.895
Rj1	net16#22	net16#16	0.500000	$metal2_conn
+ $W=8e-08	$X=0.61 $Y=1.09
Rj2	CLK#20	CLK#17	2.303939	$metal2_conn	$W=1e-07
+ $X=0.47 $Y=-0.885
Rj3	net2#14	net2#6	0.500000	$metal2_conn	$W=8e-08
+ $X=1.73 $Y=-1.01
Rj4	net3#14	net3#9	0.500000	$metal2_conn	$W=8e-08
+ $X=2.005 $Y=0.895
Rj5	net13#5	net13#2	1.404250	$metal2_conn
+ $W=9.5e-08	$X=2.03 $Y=-0.735
Rj6	net16#24	net16#18	0.500000	$metal2_conn
+ $W=8e-08	$X=2.82 $Y=-0.82
Rj7	net15#13	net15#9	2.232998	$metal2_conn
+ $W=8.75e-08	$X=2.655 $Y=-0.175
Rj8	net16#26	net16#20	0.500000	$metal2_conn
+ $W=8e-08	$X=3.555 $Y=1.09
Rj9	net2#16	net2#12	0.500000	$metal2_conn
+ $W=8e-08	$X=3.875 $Y=-0.985
Rj10	net11#6	net11	1.492864	$metal2_conn	$W=1e-07
+ $X=3.69 $Y=0.735
Rj11	net3#16	net3#12	0.500000	$metal2_conn
+ $W=8e-08	$X=4.415 $Y=0.885
Rj12	Q#7	Q#6	2.888664	$metal2_conn	$W=9e-08
+ $X=4.53 $Y=-1.345
Rk1	CLK#5	CLK	45.029484	$metal1_conn	$W=1.15e-07
+ $X=0.337 $Y=1.02
Rk2	CLK	CLK#17	0.045564	$metal1_conn	$W=1.15e-07
+ $X=0.235 $Y=1.01
Rk3	net16#13	net16#14	31.215342	$metal1_conn
+ $W=9e-08	$X=0.515 $Y=1.1875
Rk4	net16#14	net16#15	75.389771	$metal1_conn
+ $W=8.75e-08	$X=0.515 $Y=0.7625
Rk5	net16#14	net16#16	0.026481	$metal1_conn
+ $W=1.45e-07	$X=0.545 $Y=1.0575
Rk6	CLK#14	CLK#20	45.096489	$metal1_conn	$W=1.15e-07
+ $X=0.9275 $Y=-0.8875
Rk7	D	D#1	75.348587	$metal1_conn	$W=8e-08
+ $X=1.565 $Y=0.717
Rk8	D	D#2	62.273762	$metal1_conn	$W=9e-08
+ $X=1.565 $Y=1.088
Rk9	net13	net13#2	75.210541	$metal1_conn	$W=8e-08
+ $X=1.565 $Y=-0.585
Rk10	net13#2	net13#3	62.397610	$metal1_conn
+ $W=8e-08	$X=1.565 $Y=-1.02
Rk11	XI9/net2#3	XI9/net2#4	31.334566	$metal1_conn
+ $W=8.5e-08	$X=1.18 $Y=1.085
Rk12	XI9/net2#4	XI9/net2#5	75.298622	$metal1_conn
+ $W=8e-08	$X=1.18 $Y=0.685
Rk13	XI9/net2#4	XI9/net2#2	45.768200	$metal1_conn
+ $W=8e-08	$X=1.35 $Y=0.595
Rk14	XI15/net2#3	XI15/net2#4	75.298622	$metal1_conn
+ $W=8e-08	$X=1.18 $Y=-0.665
Rk15	XI15/net2#4	XI15/net2#5	31.334566	$metal1_conn
+ $W=8.5e-08	$X=1.18 $Y=-1.065
Rk16	XI15/net2#4	XI15/net2#2	45.768200	$metal1_conn
+ $W=8e-08	$X=1.35 $Y=-0.575
Rk17	net2#5	net2#6	75.394440	$metal1_conn	$W=9e-08
+ $X=1.77 $Y=-0.68
Rk18	net2#6	net2#7	62.188637	$metal1_conn	$W=9e-08
+ $X=1.77 $Y=-1.1575
Rk19	Q#3	Q#6	45.072876	$metal1_conn	$W=1.15e-07
+ $X=2.175 $Y=-1
Rk20	net3#3	net3#6	45.167610	$metal1_conn	$W=1e-07
+ $X=2.0775 $Y=1.04
Rk21	net3#6	net3#7	0.159007	$metal1_conn	$W=8.5e-08
+ $X=1.8825 $Y=1.04
Rk22	net3#7	net3#8	75.420288	$metal1_conn	$W=8.15e-08
+ $X=1.77 $Y=0.975
Rk23	net3#6	net3#9	0.070834	$metal1_conn	$W=9.25e-08
+ $X=2.005 $Y=0.9725
Rk24	net3#7	net3#10	62.190945	$metal1_conn	$W=9e-08
+ $X=1.77 $Y=1.165
Rk25	net13#4	net13#5	75.165642	$metal1_conn
+ $W=9e-08	$X=2.415 $Y=-0.5925
Rk26	net13#5	net13#6	31.405710	$metal1_conn
+ $W=8.75e-08	$X=2.415 $Y=-0.88
Rk27	net16#4	net16#18	45.042583	$metal1_conn
+ $W=1.275e-07	$X=2.8605 $Y=-0.882
Rk28	net15#5	net15#6	31.231981	$metal1_conn
+ $W=8.75e-08	$X=2.415 $Y=1.145
Rk29	net15#6	net15#7	75.358948	$metal1_conn
+ $W=8.4e-08	$X=2.415 $Y=0.7625
Rk30	net15#6	net15#8	0.152751	$metal1_conn
+ $W=1e-07	$X=2.535 $Y=1.015
Rk31	net15#8	net15#9	0.181926	$metal1_conn
+ $W=8.65e-08	$X=2.655 $Y=0.885
Rk32	net15#8	net15#3	45.192406	$metal1_conn
+ $W=1e-07	$X=2.7475 $Y=1.015
Rk33	net11	net11#2	0.021229	$metal1_conn	$W=1e-07
+ $X=3.145 $Y=0.735
Rk34	net11#2	net11#3	75.166000	$metal1_conn
+ $W=9e-08	$X=3.115 $Y=0.6175
Rk35	net11#2	net11#4	31.425781	$metal1_conn
+ $W=8.75e-08	$X=3.115 $Y=0.88
Rk36	net15#11	net15#12	75.487213	$metal1_conn
+ $W=8e-08	$X=3.465 $Y=-0.765
Rk37	net15#12	net15#13	0.021229	$metal1_conn
+ $W=8e-08	$X=3.435 $Y=-1.07
Rk38	net15#12	net15#14	62.156876	$metal1_conn
+ $W=9e-08	$X=3.465 $Y=-1.175
Rk39	XI18/net2#3	XI18/net2#4	75.300079	$metal1_conn
+ $W=7.5e-08	$X=3.08 $Y=-0.665
Rk40	XI18/net2#4	XI18/net2#5	31.334566	$metal1_conn
+ $W=8.5e-08	$X=3.08 $Y=-1.065
Rk41	XI18/net2#4	XI18/net2#2	45.768200	$metal1_conn
+ $W=8e-08	$X=3.25 $Y=-0.575
Rk42	net16#20	net16#9	22.500000	$metal1_conn
+ $W=8e-08	$X=3.555 $Y=1.09
Rk43	net2#3	net2#9	45.244991	$metal1_conn	$W=9e-08
+ $X=4.04 $Y=-0.935
Rk44	net2#9	net2#10	0.132919	$metal1_conn	$W=1e-07
+ $X=3.7675 $Y=-0.89
Rk45	net2#10	net2#11	62.297710	$metal1_conn
+ $W=8e-08	$X=3.67 $Y=-1.08
Rk46	net2#9	net2#12	0.039106	$metal1_conn	$W=1e-07
+ $X=3.875 $Y=-0.9325
Rk47	net2#10	net2#13	75.315048	$metal1_conn
+ $W=9e-08	$X=3.67 $Y=-0.68
Rk48	net11#5	net11#6	62.407558	$metal1_conn
+ $W=8e-08	$X=4.165 $Y=1.0175
Rk49	net11#6	net11#7	75.187637	$metal1_conn
+ $W=8e-08	$X=4.165 $Y=0.6075
Rk50	XI13/net2#3	XI13/net2#4	31.343842	$metal1_conn
+ $W=8.5e-08	$X=3.78 $Y=1.085
Rk51	XI13/net2#4	XI13/net2#5	75.298622	$metal1_conn
+ $W=8e-08	$X=3.78 $Y=0.685
Rk52	XI13/net2#4	XI13/net2#2	45.768200	$metal1_conn
+ $W=8e-08	$X=3.95 $Y=0.595
Rk53	Q#7	Q#8	0.012028	$metal1_conn	$W=1.85e-07
+ $X=4.345 $Y=-1.0525
Rk54	Q#8	Q#9	31.210541	$metal1_conn	$W=9e-08
+ $X=4.315 $Y=-1.1825
Rk55	Q#8	Q	0.096187	$metal1_conn	$W=8.75e-08
+ $X=4.315 $Y=-0.959
Rk56	Q	Q#10	75.308487	$metal1_conn	$W=8.75e-08
+ $X=4.315 $Y=-0.7355
Rk57	net3#11	net3#12	62.295330	$metal1_conn
+ $W=9e-08	$X=4.37 $Y=1.105
Rk58	net3#12	net3#13	75.289696	$metal1_conn
+ $W=8.75e-08	$X=4.37 $Y=0.67
Rk59	gnd!#1	gnd!#2	31.065641	$metal1_conn	$W=2.4e-07
+ $X=4.307 $Y=0.01
Rk60	gnd!#2	gnd!#3	0.026007	$metal1_conn	$W=2.4e-07
+ $X=4.173 $Y=0.01
Rk61	gnd!#3	gnd!#4	0.065392	$metal1_conn	$W=2.4e-07
+ $X=3.972 $Y=0.01
Rk62	gnd!#4	gnd!#5	0.074582	$metal1_conn	$W=2.4e-07
+ $X=3.7305 $Y=0.01
Rk63	gnd!#5	gnd!#6	0.082459	$metal1_conn	$W=2.4e-07
+ $X=3.4045 $Y=0.01
Rk64	gnd!#6	gnd!#7	0.088523	$metal1_conn	$W=2.4e-07
+ $X=3.098 $Y=0.01
Rk65	gnd!#7	gnd!#8	0.012129	$metal1_conn	$W=2.4e-07
+ $X=2.905 $Y=0.01
Rk66	gnd!#8	gnd!#9	0.056202	$metal1_conn	$W=2.4e-07
+ $X=2.8325 $Y=0.01
Rk67	gnd!#9	gnd!	0.091899	$metal1_conn	$W=2.4e-07
+ $X=2.435 $Y=0.01
Rk69	gnd!	gnd!#11	0.025104	$metal1_conn	$W=2.4e-07
+ $X=2.256 $Y=0.01
Rk70	gnd!#11	gnd!#12	0.222686	$metal1_conn
+ $W=2.4e-07	$X=1.83 $Y=0.01
Rk71	gnd!#12	gnd!#13	0.100592	$metal1_conn
+ $W=2.4e-07	$X=1.1225 $Y=0.01
Rk72	gnd!#13	gnd!#14	0.147854	$metal1_conn
+ $W=2.4e-07	$X=0.7075 $Y=0.01
Rk73	gnd!#14	gnd!#15	0.026007	$metal1_conn
+ $W=2.4e-07	$X=0.345 $Y=0.01
Rk74	gnd!#15	gnd!#1	31.039135	$metal1_conn	$W=2.4e-07
+ $X=0.25 $Y=0.01
Rk75	gnd!#3	gnd!#16	75.289001	$metal1_conn	$W=9e-08
+ $X=4.11 $Y=-0.285
Rk76	gnd!#5	gnd!#17	75.275864	$metal1_conn	$W=9e-08
+ $X=3.575 $Y=0.295
Rk77	gnd!#7	gnd!#18	75.302139	$metal1_conn	$W=9e-08
+ $X=2.91 $Y=0.305
Rk78	gnd!#8	gnd!#19	75.275864	$metal1_conn	$W=9e-08
+ $X=2.875 $Y=-0.275
Rk79	gnd!#11	gnd!#20	75.369202	$metal1_conn
+ $W=9e-08	$X=2.21 $Y=-0.285
Rk80	gnd!#11	gnd!#21	75.369202	$metal1_conn
+ $W=9e-08	$X=2.21 $Y=0.305
Rk81	gnd!#13	gnd!#22	75.356056	$metal1_conn
+ $W=9e-08	$X=0.975 $Y=-0.275
Rk82	gnd!#13	gnd!#23	75.356056	$metal1_conn
+ $W=9e-08	$X=0.975 $Y=0.295
Rk83	gnd!#15	gnd!#24	75.289001	$metal1_conn
+ $W=9e-08	$X=0.31 $Y=0.305
Rk84	gnd!#1	gnd!#2	31.000000	$metal1_conn	$W=9e-08
+ $X=4.21 $Y=-0.05
Rk85	gnd!#1	gnd!#4	12.400000	$metal1_conn	$W=9e-08
+ $X=3.86 $Y=0.07
Rk86	gnd!#1	gnd!#6	8.857142	$metal1_conn	$W=9e-08
+ $X=3.26 $Y=0.07
Rk87	gnd!#1	gnd!#9	15.500000	$metal1_conn	$W=9e-08
+ $X=2.66 $Y=0.01
Rk88	gnd!#1	gnd!	31.000000	$metal1_conn	$W=9e-08
+ $X=2.31 $Y=0.01
Rk89	gnd!#1	gnd!#12	3.875000	$metal1_conn	$W=9e-08
+ $X=1.36 $Y=0.01
Rk90	gnd!#1	gnd!#14	31.000000	$metal1_conn	$W=9e-08
+ $X=0.41 $Y=0.01
Rk91	vdd!#1	vdd!#2	31.281693	$metal1_conn	$W=9e-08
+ $X=4.11 $Y=-1.5525
Rk92	vdd!#2	vdd!#4	0.423448	$metal1_conn	$W=1.25e-07
+ $X=3.7 $Y=-1.76
Rk93	vdd!#4	vdd!#5	0.191690	$metal1_conn	$W=1.25e-07
+ $X=3.0525 $Y=-1.76
Rk94	vdd!#5	vdd!	0.280157	$metal1_conn	$W=1.25e-07
+ $X=2.6075 $Y=-1.76
Rk95	vdd!	vdd!#6	0.001246	$metal1_conn	$W=1.2e-07
+ $X=2.31 $Y=-1.76
Rk96	vdd!#6	vdd!#7	0.049645	$metal1_conn	$W=1.25e-07
+ $X=2.256 $Y=-1.76
Rk97	vdd!#7	vdd!#8	0.423448	$metal1_conn	$W=1.25e-07
+ $X=1.8 $Y=-1.76
Rk98	vdd!#8	vdd!#9	0.191690	$metal1_conn	$W=1.25e-07
+ $X=1.1525 $Y=-1.76
Rk99	vdd!#9	vdd!#10	0.281403	$metal1_conn	$W=1.25e-07
+ $X=0.7075 $Y=-1.76
Rk100	vdd!#10	vdd!#11	0.124601	$metal1_conn
+ $W=1.25e-07	$X=0.285 $Y=-1.76
Rk101	vdd!#2	vdd!#12	0.049645	$metal1_conn	$W=1.25e-07
+ $X=4.145 $Y=-1.76
Rk102	vdd!#12	vdd!#3	75.124603	$metal1_conn	$W=1.25e-07
+ $X=4.335 $Y=-1.76
Rk103	vdd!#5	vdd!#13	31.271837	$metal1_conn	$W=9e-08
+ $X=2.875 $Y=-1.56
Rk104	vdd!#7	vdd!#14	31.281693	$metal1_conn	$W=9e-08
+ $X=2.21 $Y=-1.5525
Rk105	vdd!#9	vdd!#15	31.271837	$metal1_conn	$W=9e-08
+ $X=0.975 $Y=-1.56
Rk106	vdd!#11	vdd!#17	2.221891	$metal1_conn
+ $W=1.1e-07	$X=0.005 $Y=-1.765
Rk107	vdd!#17	vdd!#18	0.074566	$metal1_conn
+ $W=1.25e-07	$X=0.25 $Y=1.78
Rk108	vdd!#18	vdd!#19	31.281693	$metal1_conn
+ $W=9e-08	$X=0.31 $Y=1.5725
Rk109	vdd!#18	vdd!#20	0.049645	$metal1_conn
+ $W=1.25e-07	$X=0.345 $Y=1.78
Rk110	vdd!#20	vdd!#21	0.281403	$metal1_conn
+ $W=1.25e-07	$X=0.7075 $Y=1.78
Rk111	vdd!#21	vdd!#22	31.271837	$metal1_conn
+ $W=9e-08	$X=0.975 $Y=1.58
Rk112	vdd!#21	vdd!#23	0.191690	$metal1_conn
+ $W=1.25e-07	$X=1.1525 $Y=1.78
Rk113	vdd!#23	vdd!#24	0.423448	$metal1_conn
+ $W=1.25e-07	$X=1.8 $Y=1.78
Rk114	vdd!#24	vdd!#25	31.281693	$metal1_conn
+ $W=9e-08	$X=2.21 $Y=1.5725
Rk115	vdd!#24	vdd!#26	0.049645	$metal1_conn
+ $W=1.25e-07	$X=2.245 $Y=1.78
Rk116	vdd!#26	vdd!#27	0.174441	$metal1_conn
+ $W=1.25e-07	$X=2.435 $Y=1.78
Rk117	vdd!#27	vdd!#28	0.124406	$metal1_conn
+ $W=1.25e-07	$X=2.85 $Y=1.78
Rk118	vdd!#28	vdd!#29	31.281693	$metal1_conn
+ $W=9e-08	$X=2.91 $Y=1.5725
Rk119	vdd!#28	vdd!#30	0.049645	$metal1_conn
+ $W=1.25e-07	$X=2.945 $Y=1.78
Rk120	vdd!#30	vdd!#31	0.281403	$metal1_conn
+ $W=1.25e-07	$X=3.3075 $Y=1.78
Rk121	vdd!#31	vdd!#32	31.271837	$metal1_conn
+ $W=9e-08	$X=3.575 $Y=1.58
Rk122	vdd!#31	vdd!#16	10.856135	$metal1_conn
+ $W=1.25e-07	$X=3.7025 $Y=1.78
Rk123	vdd!#3	vdd!#4	9.375000	$metal1_conn	$W=1.25e-07
+ $X=3.26 $Y=-1.76
Rk124	vdd!#3	vdd!#6	75.000000	$metal1_conn	$W=1.2e-07
+ $X=2.31 $Y=-1.76
Rk125	vdd!#3	vdd!#8	9.375000	$metal1_conn	$W=1.25e-07
+ $X=1.36 $Y=-1.76
Rk126	vdd!#3	vdd!#10	75.000000	$metal1_conn	$W=1.25e-07
+ $X=0.41 $Y=-1.76
Rk127	vdd!#3	vdd!#11	75.000000	$metal1_conn	$W=1.25e-07
+ $X=0.16 $Y=-1.76
Rk128	vdd!#3	vdd!#12	75.000000	$metal1_conn	$W=1.25e-07
+ $X=4.21 $Y=-1.76
Rk129	vdd!#16	vdd!#17	75.000000	$metal1_conn
+ $W=1.1e-07	$X=0.16 $Y=1.78
Rk130	vdd!#16	vdd!#20	75.000000	$metal1_conn
+ $W=1.25e-07	$X=0.41 $Y=1.78
Rk131	vdd!#16	vdd!#23	9.375000	$metal1_conn
+ $W=1.25e-07	$X=1.36 $Y=1.78
Rk132	vdd!#16	vdd!#26	75.000000	$metal1_conn
+ $W=1.25e-07	$X=2.31 $Y=1.78
Rk133	vdd!#16	vdd!#27	37.500000	$metal1_conn
+ $W=1.25e-07	$X=2.66 $Y=1.78
Rk134	vdd!#16	vdd!#30	75.000000	$metal1_conn
+ $W=1.25e-07	$X=3.01 $Y=1.78
Rl1	CLK#1	CLK#2	299.790253	$poly_conn	$W=3.9e-08
+ $X=1.4705 $Y=1.5675
Rl2	CLK#2	CLK#3	259.112518	$poly_conn	$W=3.9e-08
+ $X=0.4125 $Y=1.4975
Rl3	CLK#3	CLK#4	70.867966	$poly_conn	$W=3.9e-08
+ $X=0.4125 $Y=1.143
Rl4	CLK#4	CLK#5	2.016559	$poly_conn	$W=9.4e-08
+ $X=0.39 $Y=1.02
Rl5	CLK#2	CLK#6	28.857958	$poly_conn	$W=3.9e-08
+ $X=1.0775 $Y=1.505
Rl6	CLK#6	CLK#7	117.021820	$poly_conn	$W=3.9e-08
+ $X=1.0775 $Y=1.098
Rl7	CLK#7	CLK#8	136.252594	$poly_conn	$W=3.9e-08
+ $X=1.0775 $Y=0.7075
Rl8	CLK#4	CLK#9	168.944901	$poly_conn	$W=3.9e-08
+ $X=0.4125 $Y=0.77
Rl10	CLK#11	CLK#12	330.334869	$poly_conn	$W=3.9e-08
+ $X=1.433 $Y=-1.5475
Rl11	CLK#12	CLK#13	117.021820	$poly_conn	$W=3.9e-08
+ $X=1.0775 $Y=-1.078
Rl12	CLK#13	CLK#14	1.266559	$poly_conn	$W=9.4e-08
+ $X=1.055 $Y=-0.895
Rl13	CLK#13	CLK#15	136.252594	$poly_conn	$W=3.9e-08
+ $X=1.0775 $Y=-0.6875
Rl14	XI9/net2	XI9/net2#2	26.903002	$poly_conn
+ $W=3.9e-08	$X=1.6675 $Y=0.4005
Rl15	XI15/net2	XI15/net2#2	26.903002	$poly_conn
+ $W=3.9e-08	$X=1.6675 $Y=-0.3805
Rl16	net3	net3#2	70.867966	$poly_conn	$W=3.9e-08
+ $X=2.3125 $Y=1.143
Rl17	net3#2	net3#3	2.016559	$poly_conn	$W=9.4e-08
+ $X=2.29 $Y=1.02
Rl18	net3#2	net3#4	168.944901	$poly_conn	$W=3.9e-08
+ $X=2.3125 $Y=0.77
Rl19	Q#1	Q#2	168.944901	$poly_conn	$W=3.9e-08
+ $X=2.3125 $Y=-0.7495
Rl20	Q#2	Q#3	2.016559	$poly_conn	$W=9.4e-08
+ $X=2.29 $Y=-1
Rl21	Q#2	Q#4	70.867966	$poly_conn	$W=3.9e-08
+ $X=2.3125 $Y=-1.1225
Rl22	net15	net15#2	70.867966	$poly_conn	$W=3.9e-08
+ $X=3.0125 $Y=1.143
Rl23	net15#2	net15#3	2.016559	$poly_conn
+ $W=9.4e-08	$X=2.99 $Y=1.02
Rl24	net15#2	net15#4	168.944901	$poly_conn
+ $W=3.9e-08	$X=3.0125 $Y=0.77
Rl25	net16	net16#2	330.334869	$poly_conn	$W=3.9e-08
+ $X=3.333 $Y=-1.5475
Rl26	net16#2	net16#3	117.021820	$poly_conn
+ $W=3.9e-08	$X=2.9775 $Y=-1.078
Rl27	net16#3	net16#4	1.266559	$poly_conn
+ $W=9.4e-08	$X=2.955 $Y=-0.895
Rl28	net16#3	net16#5	136.252594	$poly_conn
+ $W=3.9e-08	$X=2.9775 $Y=-0.6875
Rl29	XI18/net2	XI18/net2#2	26.903002	$poly_conn
+ $W=3.9e-08	$X=3.5675 $Y=-0.3805
Rl30	net2	net2#2	168.944901	$poly_conn	$W=3.9e-08
+ $X=4.2125 $Y=-0.7495
Rl31	net2#2	net2#3	2.016559	$poly_conn	$W=9.4e-08
+ $X=4.19 $Y=-1
Rl32	net2#2	net2#4	70.867966	$poly_conn	$W=3.9e-08
+ $X=4.2125 $Y=-1.1225
Rl33	net16#6	net16#7	330.334869	$poly_conn
+ $W=3.9e-08	$X=4.033 $Y=1.5675
Rl34	net16#7	net16#8	49.714123	$poly_conn
+ $W=3.9e-08	$X=3.6775 $Y=1.1855
Rl35	net16#8	net16#9	2.016559	$poly_conn
+ $W=9.4e-08	$X=3.655 $Y=1.09
Rl36	net16#8	net16#10	59.043633	$poly_conn
+ $W=3.9e-08	$X=3.6775 $Y=1.0025
Rl37	net16#10	net16#11	136.252594	$poly_conn
+ $W=3.9e-08	$X=3.6775 $Y=0.7075
Rl39	XI13/net2	XI13/net2#2	26.903002	$poly_conn
+ $W=3.9e-08	$X=4.2675 $Y=0.4005
*
*       CAPACITOR CARDS
*
*
C1	net15#7	net11#3	5.62314e-19	$X=2.808 $Y=0.5365
C2	net16#24	gnd!#19	1.566e-18	$X=2.81 $Y=-0.499
C3	net16#24	Q#2	1.08917e-18	$X=2.325 $Y=-0.925
C4	gnd!#19	XI18/net2#3	1.47957e-17	$X=2.977 $Y=-0.47
C5	vdd!#31	net16#7	3.94294e-18	$X=3.6385 $Y=1.5075
C6	net11#6	net3#13	5.64725e-18	$X=4.2775 $Y=0.5965
C7	Q	vdd!	3.81805e-18	$X=4.314 $Y=-0.848
C8	gnd!#1	net16#15	5.84508e-18	$X=0.5265 $Y=0.5525
C9	gnd!#17	net16#11	3.77133e-18	$X=3.643 $Y=0.496
C10	net11#6	gnd!#3	1.26438e-18	$X=4.0925 $Y=0.292
C11	gnd!#16	XI18/net2	7.73636e-19	$X=3.7065 $Y=-0.4925
C12	CLK#14	gnd!#22	7.39722e-18	$X=0.9935 $Y=-0.696
C13	XI18/net2#4	net15#11	1.78014e-17	$X=3.343 $Y=-0.666
C14	net2#14	net16#24	5.74498e-17	$X=2.109 $Y=-0.911
C15	net13#5	Q#3	1.41378e-17	$X=2.259 $Y=-0.944
C16	net3#14	gnd!#18	1.8581e-18	$X=2.789 $Y=0.561
C17	XI13/net2#4	net11#7	6.02823e-18	$X=4.0665 $Y=0.63
C18	vdd!#1	net2#3	7.057e-18	$X=4.099 $Y=-1.1235
C19	vdd!#16	net16#15	2.916e-18	$X=0.5275 $Y=0.5715
C20	Q#6	net2#7	2.30982e-18	$X=1.8105 $Y=-1.222
C21	net16#6	vdd!	2.91843e-17	$X=4.2665 $Y=1.3595
C22	net11#4	XI13/net2#4	1.58265e-18	$X=3.516 $Y=1.0655
C23	net2#4	vdd!	7.78532e-18	$X=4.2115 $Y=-1.3285
C24	net11#3	net16#11	1.00266e-18	$X=3.457 $Y=0.519
C25	net16#7	vdd!	1.83078e-17	$X=3.6765 $Y=1.3875
C26	net16#18	XI18/net2#4	4.38825e-18	$X=2.9045 $Y=-0.8525
C27	net16	vdd!	1.53046e-17	$X=3.5665 $Y=-0.2125
C28	D	net3#3	2.01135e-19	$X=1.8535 $Y=0.953
C29	XI15/net2#4	net13#2	2.856e-17	$X=1.4505 $Y=-0.821
C30	net15	vdd!	6.96865e-18	$X=3.0115 $Y=1.3485
C31	net3#16	net11#6	3.09158e-17	$X=4.083 $Y=0.8175
C32	net16#2	vdd!	2.29079e-17	$X=2.9765 $Y=-1.324
C33	net2#16	Q#7	4.32647e-17	$X=3.9295 $Y=-1.1905
C34	net2#13	XI18/net2	2.88452e-18	$X=3.5915 $Y=-0.5065
C35	net3	vdd!	7.03099e-18	$X=2.312 $Y=1.3485
C36	Q#6	Q#3	1.1665e-18	$X=2.2255 $Y=-1.002
C37	XI13/net2#4	net16#8	9.19962e-19	$X=3.7015 $Y=1.065
C38	net3#9	net3#6	5.9818e-18	$X=2.0045 $Y=0.9475
C39	Q#4	vdd!	9.00135e-18	$X=2.312 $Y=-1.3285
C40	net16#26	net3#12	8.0609e-19	$X=4.134 $Y=0.9315
C41	CLK#1	vdd!	1.50986e-17	$X=1.667 $Y=1.3595
C42	net3#14	D	1.88201e-18	$X=1.6785 $Y=0.9005
C43	net16#9	XI13/net2#4	9.91069e-18	$X=3.687 $Y=0.9965
C44	CLK#11	vdd!	1.17189e-17	$X=1.667 $Y=-1.34
C45	CLK#17	net16#14	3.1832e-18	$X=0.4495 $Y=0.9285
C46	gnd!#24	net16#15	1.47957e-17	$X=0.4075 $Y=0.513
C47	net2#3	Q	1.20333e-17	$X=4.2535 $Y=-0.883
C48	CLK#6	vdd!	5.20067e-18	$X=1.077 $Y=1.301
C49	net16#29	net3#3	1.50068e-18	$X=2.1155 $Y=1.0265
C50	CLK#12	vdd!	2.13652e-17	$X=1.077 $Y=-1.324
C51	CLK#3	vdd!	1.52593e-17	$X=0.412 $Y=1.366
C52	XI18/net2#2	gnd!#1	1.75982e-17	$X=3.4765 $Y=-0.2965
C53	net2#11	vdd!#1	5.73323e-18	$X=3.829 $Y=-1.277
C54	gnd!#11	net3#6	1.89377e-18	$X=2.0045 $Y=0.892
C55	net2#16	Q	1.79552e-18	$X=4.26 $Y=-0.8805
C56	net16#22	gnd!#13	2.62722e-18	$X=0.7785 $Y=0.7465
C57	net15#11	XI18/net2	2.84284e-18	$X=3.5445 $Y=-0.511
C58	net11#6	gnd!#5	7.28471e-19	$X=3.8405 $Y=0.457
C59	net3#3	net15#6	2.3486e-17	$X=2.3215 $Y=0.986
C60	vdd!#16	gnd!#24	9.91665e-18	$X=0.333 $Y=0.4865
C61	vdd!#3	net13#3	3.93294e-18	$X=1.5795 $Y=-1.2265
C62	net3#14	net3#2	1.37538e-18	$X=2.312 $Y=0.9485
C63	net3#7	net3#9	1.54377e-17	$X=1.9425 $Y=0.917
C64	XI9/net2#3	vdd!#16	4.58283e-18	$X=1.1905 $Y=1.322
C65	net15#13	net2#10	2.54387e-17	$X=3.604 $Y=-0.903
C66	net16#13	vdd!#22	6.09722e-18	$X=0.733 $Y=1.351
C67	XI13/net2#2	vdd!	2.06639e-18	$X=4.1875 $Y=0.3195
C68	net2#3	vdd!	7.54381e-18	$X=4.0885 $Y=-0.9775
C69	net11#4	net15#2	1.56118e-18	$X=3.032 $Y=1.024
C70	vdd!#5	net16#2	3.21957e-18	$X=2.9385 $Y=-1.461
C71	gnd!#1	net15#3	1.33138e-18	$X=2.9205 $Y=1.011
C72	Q#6	net13#3	1.32986e-18	$X=1.6595 $Y=-1.185
C73	net2#16	net2#12	2.48865e-18	$X=3.858 $Y=-1.007
C74	net16#9	vdd!	7.54602e-18	$X=3.5475 $Y=1.0895
C75	net16#16	XI9/net2#4	3.04717e-18	$X=0.732 $Y=1.0175
C76	net15#2	net16#9	3.1281e-18	$X=3.163 $Y=0.9935
C77	net15#3	vdd!	6.95924e-18	$X=2.9235 $Y=1.0195
C78	XI9/net2#5	XI9/net2#4	1.5688e-17	$X=1.208 $Y=0.656
C79	XI18/net2#3	XI18/net2	3.48131e-19	$X=3.439 $Y=-0.505
C80	net16#4	vdd!	2.41337e-18	$X=2.9125 $Y=-0.8885
C81	CLK#20	XI15/net2#4	1.17687e-18	$X=1.0995 $Y=-0.869
C82	net15#7	gnd!#18	4.01169e-18	$X=2.6725 $Y=0.513
C83	net3#3	vdd!	5.24582e-18	$X=2.2275 $Y=1.0195
C84	net16#14	CLK#4	6.78359e-18	$X=0.452 $Y=0.9635
C85	Q#3	vdd!	8.28114e-18	$X=2.2405 $Y=-1
C86	D	net3#8	3.71322e-18	$X=1.6395 $Y=0.767
C87	XI9/net2#2	vdd!	2.06639e-18	$X=1.588 $Y=0.3195
C88	gnd!#17	net15#4	1.57301e-18	$X=3.222 $Y=0.5205
C89	net16#4	XI18/net2#4	2.78592e-17	$X=2.991 $Y=-0.88
C90	vdd!#3	net15#13	3.1392e-18	$X=3.2245 $Y=-1.057
C91	XI15/net2#4	CLK#12	1.87922e-18	$X=1.153 $Y=-1.135
C92	net16#14	CLK#3	1.0216e-18	$X=0.47 $Y=1.1435
C93	CLK#14	vdd!	3.28704e-18	$X=1.005 $Y=-0.895
C94	CLK#5	vdd!	4.90326e-18	$X=0.339 $Y=1.0195
C95	XI9/net2#4	D	2.02099e-17	$X=1.477 $Y=0.895
C96	net15#6	net15#2	1.04951e-18	$X=2.79 $Y=0.955
C97	net3#16	vdd!	6.40698e-18	$X=4.103 $Y=0.8895
C98	net2#16	vdd!	2.47322e-17	$X=3.558 $Y=-1.295
C99	net16#9	XI13/net2#3	1.1116e-17	$X=3.645 $Y=1.185
C100	net16#7	net16#6	2.55578e-18	$X=3.9855 $Y=1.3725
C101	net16#26	vdd!	8.29874e-18	$X=3.2965 $Y=1.0895
C102	D	net3#7	2.52707e-17	$X=1.648 $Y=0.927
C103	gnd!#24	CLK#5	1.41223e-18	$X=0.333 $Y=0.892
C104	D#2	net3#7	5.81697e-18	$X=1.67 $Y=1.108
C105	net3#14	vdd!	2.32647e-18	$X=2.3155 $Y=0.8945
C106	vdd!#19	vdd!#22	2.22355e-18	$X=0.648 $Y=1.37
C107	net3#14	gnd!#21	9.87625e-19	$X=2.2355 $Y=0.561
C108	net2#14	vdd!	2.78997e-17	$X=1.7295 $Y=-1.01
C109	net2#6	Q#2	3.06392e-18	$X=2.1345 $Y=-0.937
C110	net16#22	vdd!	2.0886e-18	$X=0.6875 $Y=1.0895
C111	net3#12	vdd!	8.87669e-18	$X=4.369 $Y=0.8875
C112	vdd!#32	XI13/net2#3	2.1577e-17	$X=3.675 $Y=1.3455
C113	Q#7	vdd!	5.59854e-17	$X=4.3465 $Y=-1.073
C114	net11#3	net15#4	2.54912e-18	$X=3.052 $Y=0.5435
C115	net16	net2#4	2.63957e-18	$X=4.044 $Y=-1.038
C116	net11#6	vdd!	1.78627e-18	$X=4.0705 $Y=0.7735
C117	net3#16	net11	1.02693e-17	$X=3.588 $Y=0.8185
C118	net2#12	vdd!	2.67721e-18	$X=3.874 $Y=-0.991
C119	vdd!#18	vdd!#21	2.67462e-18	$X=0.4725 $Y=1.7065
C120	net3#9	net15#6	5.16665e-18	$X=2.122 $Y=0.9155
C121	net15#13	net2#16	1.96464e-17	$X=3.401 $Y=-1.144
C122	gnd!#11	net3#7	1.65145e-18	$X=1.8185 $Y=0.765
C123	net15#13	vdd!	1.15565e-17	$X=3.2715 $Y=-1.0195
C124	net11	vdd!	2.09371e-18	$X=3.2575 $Y=0.7735
C125	net16#18	vdd!	1.41722e-18	$X=2.819 $Y=-0.85
C126	XI15/net2#4	net13	6.42427e-18	$X=1.465 $Y=-0.6145
C127	XI18/net2#3	XI18/net2#4	1.55917e-17	$X=3.108 $Y=-0.6365
C128	net13#5	vdd!	2.63177e-18	$X=2.3185 $Y=-0.7675
C129	net15	net16#7	1.60199e-18	$X=3.25 $Y=1.362
C130	net2#6	XI15/net2#2	1.15404e-18	$X=1.6955 $Y=-0.6795
C131	net16#9	net16#8	1.45747e-18	$X=3.656 $Y=1.0925
C132	CLK#17	XI9/net2#4	3.71913e-19	$X=0.9205 $Y=0.8255
C133	Q#6	vdd!	2.93206e-17	$X=2.1095 $Y=-1.015
C134	vdd!#16	CLK#2	4.00842e-18	$X=1.089 $Y=1.55
C135	net3#7	net15#6	1.76321e-18	$X=2.1125 $Y=0.9585
C136	net2#6	vdd!	4.05779e-18	$X=1.7695 $Y=-0.9395
C137	net16#9	vdd!#32	1.31765e-17	$X=3.5615 $Y=1.215
C138	net13#2	vdd!	1.6883e-18	$X=1.7005 $Y=-0.7685
C139	CLK#20	vdd!	5.11996e-18	$X=0.706 $Y=-0.89
C140	XI13/net2#5	XI13/net2#4	1.55704e-17	$X=3.808 $Y=0.656
C141	gnd!#18	net15#4	4.37342e-18	$X=2.976 $Y=0.5275
C142	net16#16	vdd!	4.63609e-18	$X=0.582 $Y=1.057
C143	gnd!#5	net16#9	8.42386e-19	$X=3.5565 $Y=0.764
C144	CLK#17	vdd!	5.52522e-18	$X=0.138 $Y=0.7035
C145	vdd!#16	net16#14	5.28308e-18	$X=0.5265 $Y=0.9815
C146	net16#2	net16	3.59433e-18	$X=3.2205 $Y=-0.8655
C147	vdd!#3	XI15/net2#5	4.90682e-18	$X=1.198 $Y=-1.3035
C148	net3#11	vdd!	1.04275e-17	$X=4.364 $Y=1.255
C149	net13#2	XI15/net2#2	4.77726e-18	$X=1.634 $Y=-0.492
C150	net11#5	vdd!	3.45173e-18	$X=4.169 $Y=1.2365
C151	net13#3	net2#6	1.50898e-17	$X=1.672 $Y=-1.076
C152	net11	XI13/net2#4	5.05616e-18	$X=3.619 $Y=0.8365
C153	net2#14	vdd!#7	1.62713e-18	$X=1.9225 $Y=-1.567
C154	XI13/net2#3	vdd!	4.1156e-18	$X=3.774 $Y=1.3135
C155	vdd!#32	vdd!	3.03053e-18	$X=3.579 $Y=1.377
C156	net3	net15	1.42411e-18	$X=2.662 $Y=1.3485
C157	net16#29	XI9/net2#4	7.81938e-18	$X=1.2445 $Y=0.917
C158	net11#4	vdd!	2.90643e-18	$X=3.109 $Y=1.283
C159	XI18/net2#5	vdd!	1.82766e-18	$X=3.074 $Y=-1.2935
C160	net15#7	net15#4	9.65899e-19	$X=2.8025 $Y=0.5585
C161	vdd!#29	vdd!	2.54914e-18	$X=2.914 $Y=1.3635
C162	vdd!#13	vdd!	2.21439e-18	$X=2.879 $Y=-1.3575
C163	net16#26	net11	1.52128e-17	$X=3.274 $Y=0.9035
C164	XI13/net2	net16#6	8.81422e-19	$X=4.267 $Y=0.7505
C165	net15#5	vdd!	1.43232e-18	$X=2.4095 $Y=1.317
C166	net11#4	net16#9	7.81835e-18	$X=3.371 $Y=1.167
C167	XI18/net2#2	gnd!#3	2.69465e-18	$X=3.7745 $Y=-0.1975
C168	net13#6	vdd!	9.1335e-18	$X=2.4095 $Y=-1.2655
C169	net16#24	net15#13	5.57762e-17	$X=2.8935 $Y=-0.9275
C170	XI18/net2#3	net16#5	3.71991e-18	$X=3.0105 $Y=-0.5005
C171	vdd!#25	vdd!	2.86915e-18	$X=2.2145 $Y=1.3635
C172	net2#10	Q	1.94105e-18	$X=4.1055 $Y=-0.8585
C173	D	net3#2	2.70871e-19	$X=1.9905 $Y=0.9325
C174	vdd!#16	CLK#4	3.42454e-18	$X=0.421 $Y=0.96
C175	vdd!#14	vdd!	1.88953e-18	$X=2.2145 $Y=-1.344
C176	gnd!#21	gnd!#18	1.81871e-18	$X=2.5645 $Y=0.473
C177	net11#4	net16#8	1.5068e-18	$X=3.612 $Y=1.115
C178	Q#4	net16#2	1.75518e-18	$X=2.5335 $Y=-1.327
C179	net13#4	gnd!#19	4.01865e-18	$X=2.625 $Y=-0.473
C180	net3#10	vdd!	2.93187e-18	$X=1.7645 $Y=1.273
C181	net11#4	XI13/net2#3	1.88994e-18	$X=3.459 $Y=1.299
C182	net15#14	net2#11	1.15824e-17	$X=3.557 $Y=-1.2505
C183	net16#29	gnd!#23	1.68198e-18	$X=0.9995 $Y=0.5285
C184	net13#3	vdd!	2.6419e-18	$X=1.5695 $Y=-1.219
C185	gnd!#1	XI9/net2#4	1.03045e-18	$X=1.2805 $Y=0.868
C186	XI9/net2#3	vdd!	2.87533e-18	$X=1.1745 $Y=1.3135
C187	XI15/net2#5	vdd!	3.62031e-18	$X=1.1745 $Y=-1.2935
C188	vdd!#19	net16#13	2.1577e-17	$X=0.417 $Y=1.3445
C189	Q#6	vdd!#15	1.38037e-18	$X=1.2415 $Y=-1.2785
C190	net15#8	net15#2	1.14997e-18	$X=2.843 $Y=0.96
C191	vdd!#15	vdd!	1.33169e-17	$X=0.9795 $Y=-1.3575
C192	vdd!#19	vdd!	2.17684e-18	$X=0.3145 $Y=1.3635
C193	vdd!#2	net2#3	1.48323e-18	$X=4.015 $Y=-1.267
C194	vdd!#16	vdd!	1.036e-16	$X=2.068 $Y=1.7795
C195	CLK#14	XI15/net2#4	2.47823e-17	$X=1.086 $Y=-0.8845
C196	vdd!#3	vdd!	8.06617e-17	$X=2.3345 $Y=-1.7595
C197	gnd!#1	XI9/net2#2	3.84368e-17	$X=1.599 $Y=0.3155
C198	gnd!#19	net16#5	3.82991e-18	$X=2.943 $Y=-0.477
C199	net16#29	gnd!#21	1.29481e-18	$X=2.09 $Y=0.545
C200	net2#14	vdd!#9	2.17243e-18	$X=1.166 $Y=-1.518
C201	vdd!#7	vdd!#5	1.96535e-18	$X=2.4335 $Y=-1.7255
C202	net11#6	net3#12	4.05368e-17	$X=4.2815 $Y=0.8535
C203	XI18/net2#2	gnd!#5	1.83928e-17	$X=3.519 $Y=-0.158
C204	net16#26	net15#9	8.66935e-19	$X=2.9855 $Y=0.781
C205	net16#24	net16#18	6.04121e-18	$X=2.784 $Y=-0.8475
C206	net3#14	net11	4.97306e-18	$X=2.8895 $Y=0.8205
C207	net16	XI18/net2	1.12939e-18	$X=3.567 $Y=-0.4545
C208	net2#14	net15#13	3.72703e-18	$X=2.5935 $Y=-1.0155
C209	net13#4	net16#5	7.73049e-19	$X=2.759 $Y=-0.5005
C210	net3#2	net15#3	1.55474e-18	$X=2.5145 $Y=0.977
C211	vdd!#16	net16#13	7.29853e-18	$X=0.5345 $Y=1.3345
C212	XI15/net2#2	gnd!#1	3.7991e-17	$X=1.599 $Y=-0.2965
C213	net2#16	Q#6	1.5636e-17	$X=2.85 $Y=-1.1585
C214	CLK#6	CLK#1	2.88533e-18	$X=1.307 $Y=1.3235
C215	gnd!#18	net3#4	1.16425e-18	$X=2.5325 $Y=0.5275
C216	XI15/net2#3	XI15/net2#4	1.5899e-17	$X=1.208 $Y=-0.6365
C217	net15#3	net11#4	1.2946e-17	$X=2.9885 $Y=1.111
C218	net16#29	vdd!#16	6.67587e-18	$X=1.224 $Y=1.141
C219	XI15/net2#4	gnd!#1	1.2977e-18	$X=1.2805 $Y=-0.849
C220	net11#4	vdd!#32	6.10444e-18	$X=3.361 $Y=1.333
C221	XI13/net2#2	net16#6	8.01373e-19	$X=4.237 $Y=0.968
C222	net16#29	gnd!#11	3.14014e-18	$X=1.7235 $Y=0.367
C223	CLK#12	CLK#11	3.46137e-18	$X=1.402 $Y=-1.333
C224	net16#14	vdd!	3.78248e-18	$X=0.514 $Y=0.975
C225	Q#7	net2#12	1.09628e-18	$X=3.896 $Y=-0.995
C226	XI9/net2#4	vdd!	3.14953e-18	$X=1.2645 $Y=0.8795
C227	net15#7	net3#4	5.25422e-18	$X=2.3455 $Y=0.5585
C228	gnd!#8	XI18/net2#2	2.31793e-18	$X=3.276 $Y=-0.1515
C229	XI15/net2#4	vdd!	6.6262e-18	$X=1.2645 $Y=-0.86
C230	net16#24	net13#5	1.3461e-17	$X=2.3605 $Y=-0.784
C231	net15#3	net15#2	2.88686e-18	$X=2.9825 $Y=0.977
C232	Q#7	vdd!#2	1.38406e-17	$X=4.0005 $Y=-1.594
C233	XI9/net2#4	vdd!#16	1.91213e-18	$X=1.278 $Y=0.895
C234	net11	XI13/net2#5	1.25843e-18	$X=3.6255 $Y=0.595
C235	net3#14	net15#9	7.58327e-18	$X=2.4875 $Y=0.6705
C236	gnd!#20	gnd!#19	1.8626e-18	$X=2.55 $Y=-0.445
C237	net3#6	vdd!	5.5116e-18	$X=2.0045 $Y=1.021
C238	vdd!#16	vdd!#19	1.55752e-17	$X=0.3455 $Y=1.3705
C239	gnd!#21	net15#7	1.47957e-17	$X=2.3075 $Y=0.513
C240	CLK#3	CLK#6	1.32484e-18	$X=0.8415 $Y=1.3235
C241	Q	net2#2	3.38968e-18	$X=4.2685 $Y=-0.887
C242	net3#7	vdd!	4.62026e-18	$X=1.7695 $Y=0.9645
C243	net15#3	vdd!#29	9.70622e-18	$X=2.92 $Y=1.15
C244	net15#6	vdd!	3.93056e-18	$X=2.4145 $Y=0.9535
C245	net15#8	vdd!	4.60349e-18	$X=2.654 $Y=0.965
C246	net15#11	net2#10	6.55739e-18	$X=3.5845 $Y=-0.7315
C247	gnd!#11	gnd!#8	4.45237e-18	$X=2.548 $Y=0.061
C248	XI18/net2#4	vdd!	3.08847e-18	$X=3.164 $Y=-0.86
C249	gnd!#21	net3#4	3.71392e-18	$X=2.276 $Y=0.5275
C250	net16#24	Q#6	1.13733e-17	$X=2.29 $Y=-0.9135
C251	vdd!#3	CLK#15	2.04509e-18	$X=1.0845 $Y=-0.5065
C252	gnd!#19	Q#1	1.13046e-18	$X=2.5215 $Y=-0.5015
C253	net2#9	vdd!	1.23408e-18	$X=3.874 $Y=-0.8955
C254	net16#15	XI9/net2#4	1.45088e-18	$X=0.8095 $Y=0.6855
C255	net2#10	vdd!	2.43061e-18	$X=3.669 $Y=-0.88
C256	XI13/net2#4	vdd!	4.21571e-18	$X=3.864 $Y=0.8795
C257	net16#16	XI9/net2#3	1.45543e-18	$X=0.707 $Y=1.111
C258	Q#6	vdd!#3	2.79902e-18	$X=2.1235 $Y=-1.062
C259	net16#26	vdd!#31	4.03025e-18	$X=3.4825 $Y=1.5045
C260	Q#7	net15#13	6.45763e-18	$X=3.7265 $Y=-1.0425
C261	XI9/net2#4	CLK#2	1.55792e-18	$X=1.1545 $Y=1.271
C262	net15#6	net15#8	4.26943e-18	$X=2.559 $Y=0.96
C263	net16#29	net15#6	2.25883e-18	$X=2.2845 $Y=0.9675
C264	net3#8	net3#4	2.45507e-18	$X=2.1265 $Y=0.5535
C265	net11	gnd!#5	2.22364e-18	$X=3.408 $Y=0.45
C266	vdd!#29	vdd!#32	2.23718e-18	$X=3.248 $Y=1.37
C267	XI18/net2#5	net15#14	6.21999e-18	$X=3.3445 $Y=-1.2715
C268	vdd!#16	CLK#9	3.68191e-18	$X=0.422 $Y=0.567
C269	net2#14	net13#5	3.33302e-18	$X=2.1485 $Y=-0.8375
C270	net13#4	Q#1	2.67442e-18	$X=2.3515 $Y=-0.525
C271	net11	gnd!#17	2.60397e-18	$X=3.4865 $Y=0.547
C272	gnd!#8	net15#3	1.11054e-18	$X=2.923 $Y=0.7545
C273	net16	XI18/net2#2	1.40648e-18	$X=3.526 $Y=-0.2575
C274	net15#13	gnd!#8	1.4662e-18	$X=3.0515 $Y=-0.317
C275	vdd!#13	net16#4	3.50453e-18	$X=2.9025 $Y=-1.0335
C276	vdd!#2	vdd!	1.60916e-17	$X=3.8895 $Y=-1.76
C277	net16#24	net2#6	2.0104e-18	$X=1.8875 $Y=-0.919
C278	XI9/net2	CLK#1	1.08307e-18	$X=1.667 $Y=0.76
C279	vdd!#5	vdd!	1.58399e-17	$X=2.874 $Y=-1.6905
C280	net16#11	XI13/net2	1.53707e-18	$X=4.0325 $Y=0.522
C281	net3#14	net3#9	3.84823e-18	$X=2.0305 $Y=0.8995
C282	Q#2	net16#4	1.41825e-18	$X=2.556 $Y=-0.9165
C283	net3#14	vdd!#24	1.16164e-18	$X=2.098 $Y=1.4835
C284	vdd!#7	vdd!	1.58546e-17	$X=1.99 $Y=-1.76
C285	D#1	net3#4	3.53591e-19	$X=2.0465 $Y=0.549
C286	net2#14	Q#6	4.82551e-17	$X=1.9195 $Y=-1.013
C287	vdd!#9	vdd!	1.89809e-17	$X=0.9745 $Y=-1.6905
C288	gnd!#20	Q#1	3.70225e-18	$X=2.276 $Y=-0.5085
C289	net16#29	gnd!#22	1.61973e-18	$X=0.9995 $Y=-0.26
C290	vdd!#3	CLK#13	2.53724e-18	$X=1.085 $Y=-0.889
C291	vdd!#18	vdd!	6.30095e-18	$X=0.3095 $Y=1.706
C292	net3#16	gnd!#1	3.28775e-18	$X=4.0585 $Y=0.864
C293	net16#24	net13#2	1.66177e-17	$X=1.93 $Y=-0.7845
C294	net15#13	XI18/net2#3	1.22993e-18	$X=3.1105 $Y=-0.5985
C295	CLK#17	CLK#4	8.28023e-19	$X=0.379 $Y=0.9255
C296	vdd!#21	vdd!	1.74894e-17	$X=0.9745 $Y=1.71
C297	CLK#11	XI15/net2	9.55973e-19	$X=1.667 $Y=-0.7315
C298	XI9/net2#4	CLK#4	5.76274e-19	$X=0.613 $Y=0.9375
C299	vdd!#24	vdd!	1.82001e-17	$X=1.9895 $Y=1.7795
C300	XI18/net2	net2	1.55831e-18	$X=3.807 $Y=-0.5185
C301	net3#8	net15#7	3.7691e-18	$X=2.093 $Y=0.55
C302	vdd!#9	XI15/net2#5	2.13228e-18	$X=1.0785 $Y=-1.484
C303	gnd!#20	net13#4	1.47957e-17	$X=2.3205 $Y=-0.481
C304	vdd!#28	vdd!	6.67646e-18	$X=2.909 $Y=1.706
C305	net3#2	net15#2	2.07303e-18	$X=2.662 $Y=0.956
C306	net16#29	gnd!#20	1.03514e-18	$X=2.09 $Y=-0.2725
C307	vdd!#31	vdd!	1.68093e-17	$X=3.574 $Y=1.71
C308	net2#5	Q#1	2.24063e-18	$X=2.1245 $Y=-0.5335
C309	net16#4	net16#3	5.5913e-18	$X=2.95 $Y=-0.8855
C310	net16#29	XI9/net2#2	5.10987e-18	$X=1.5145 $Y=0.4495
C311	net16#24	CLK#20	2.71429e-18	$X=1.472 $Y=-0.8595
C312	gnd!#21	XI9/net2	7.73636e-19	$X=1.8065 $Y=0.5115
C313	net2#16	gnd!#1	3.52068e-18	$X=3.518 $Y=-1.2435
C314	vdd!#29	net11#4	2.1577e-17	$X=3.005 $Y=1.3255
C315	vdd!#3	net2#6	9.88526e-19	$X=1.7765 $Y=-0.95
C316	net15#4	net16#11	2.18224e-18	$X=3.362 $Y=0.5375
C317	net16#4	gnd!#8	1.55671e-18	$X=2.915 $Y=-0.667
C318	net2#14	net2#6	6.04032e-18	$X=1.763 $Y=-0.951
C319	net11#6	net16#6	1.63189e-18	$X=4.211 $Y=1.1925
C320	vdd!#2	net2#12	2.35845e-18	$X=3.8765 $Y=-1.0925
C321	vdd!#24	CLK#1	1.30194e-18	$X=1.7685 $Y=1.4915
C322	vdd!#3	XI15/net2#4	2.88118e-18	$X=1.2855 $Y=-0.878
C323	net15#13	gnd!#19	1.39127e-18	$X=2.9515 $Y=-0.5435
C324	net15#9	gnd!#17	1.16111e-18	$X=3.384 $Y=0.455
C325	net16#5	XI18/net2	1.53707e-18	$X=3.3325 $Y=-0.503
C326	Q#7	net2#4	2.94985e-18	$X=4.2235 $Y=-1.3065
C327	net3#3	net3#2	2.78247e-18	$X=2.2805 $Y=0.979
C328	net2#14	net13#2	2.03507e-17	$X=1.7085 $Y=-0.8375
C329	net13#4	XI15/net2	3.19898e-19	$X=1.883 $Y=-0.505
C330	XI13/net2#4	XI13/net2	7.84257e-19	$X=4.1975 $Y=0.586
C331	net16#29	net3#4	2.68982e-18	$X=2.229 $Y=0.597
C332	vdd!#3	net2#3	1.23366e-18	$X=4.0655 $Y=-0.988
C333	net3#3	vdd!#25	9.70622e-18	$X=2.223 $Y=1.137
C334	XI13/net2#2	net11#7	2.17781e-17	$X=4.176 $Y=0.438
C335	vdd!#3	net13#2	1.02395e-18	$X=1.717 $Y=-0.7945
C336	net2#16	Q#9	1.09724e-18	$X=4.144 $Y=-1.308
C337	vdd!#16	gnd!#15	5.06618e-18	$X=0.328 $Y=0.1145
C338	net3#4	net15#4	1.89359e-18	$X=2.662 $Y=0.5595
C339	net16#26	net3#11	7.46746e-19	$X=4.127 $Y=1.218
C340	D#1	XI9/net2	2.84284e-18	$X=1.6425 $Y=0.526
C341	Q#3	net13#6	1.20552e-17	$X=2.2865 $Y=-1.073
C342	net16#22	vdd!#21	2.17906e-18	$X=0.823 $Y=1.383
C343	net15#9	gnd!#5	9.43281e-19	$X=3.185 $Y=0.2445
C344	gnd!#20	XI15/net2	7.13961e-19	$X=1.8065 $Y=-0.4925
C345	CLK#2	vdd!	2.53154e-17	$X=1.077 $Y=1.5475
C346	CLK#4	vdd!	6.3304e-18	$X=0.412 $Y=0.956
C347	net16#24	gnd!#1	3.52383e-18	$X=2.4585 $Y=-0.789
C348	CLK#13	vdd!	9.44689e-18	$X=1.077 $Y=-0.883
C349	net3#2	vdd!	6.22094e-18	$X=2.312 $Y=0.956
C350	net2#16	net16#2	2.22162e-18	$X=3.0795 $Y=-1.319
C351	net15#5	net11#4	1.23319e-18	$X=2.7265 $Y=1.3015
C352	Q#2	vdd!	5.74578e-18	$X=2.312 $Y=-0.9355
C353	vdd!#13	XI18/net2#5	2.37627e-17	$X=2.975 $Y=-1.3265
C354	net15#2	vdd!	7.07247e-18	$X=3.0115 $Y=0.956
C355	XI13/net2#5	XI13/net2#2	1.31675e-17	$X=3.9355 $Y=0.4435
C356	net16#14	XI9/net2#4	3.03125e-18	$X=0.754 $Y=0.944
C357	net16#3	vdd!	3.81163e-18	$X=2.9765 $Y=-0.883
C358	net2#2	vdd!	8.89516e-18	$X=4.2115 $Y=-0.9355
C359	Q#7	net16	1.64447e-18	$X=3.7335 $Y=-0.3965
C360	net2#5	net13#4	1.05731e-18	$X=2.1325 $Y=-0.5115
C361	XI13/net2#2	XI13/net2	7.27285e-19	$X=4.2525 $Y=0.487
C362	net15#13	net13#4	1.54615e-18	$X=2.548 $Y=-0.5865
C363	net3#8	gnd!#21	6.94791e-18	$X=2.003 $Y=0.5055
C364	net16#8	vdd!	6.6067e-18	$X=3.6765 $Y=1.0935
C365	net15#13	net16#18	3.83354e-18	$X=2.8695 $Y=-0.869
C366	gnd!#1	net15#6	8.47114e-19	$X=2.415 $Y=0.947
C367	XI9/net2#2	CLK#1	1.0307e-18	$X=1.638 $Y=0.982
C368	Q#1	net16#5	2.28217e-18	$X=2.6615 $Y=-0.518
C369	net15#9	net11#3	1.4518e-18	$X=3.026 $Y=0.5085
C370	net2#13	gnd!#5	5.02428e-18	$X=3.6395 $Y=-0.344
C371	net2#10	net2	8.88173e-19	$X=3.993 $Y=-0.677
C372	XI9/net2#5	XI9/net2	3.48131e-19	$X=1.5395 $Y=0.524
C373	vdd!#3	CLK#20	3.16623e-17	$X=0.78 $Y=-0.93
C374	net2#16	vdd!#1	2.06194e-18	$X=3.98 $Y=-1.3325
C375	net2#5	XI15/net2	2.87268e-18	$X=1.69 $Y=-0.5095
C376	vdd!#14	Q#3	7.057e-18	$X=2.2325 $Y=-1.1025
C377	net3#14	gnd!#1	1.37083e-18	$X=2.3215 $Y=0.869
C378	net16#16	vdd!#16	1.89779e-18	$X=0.589 $Y=1.0605
C379	net16#26	net11#5	1.55172e-18	$X=3.955 $Y=1.2
C380	net2#3	gnd!#16	4.6886e-18	$X=4.102 $Y=-0.702
C381	gnd!#17	XI13/net2#2	5.55862e-18	$X=3.817 $Y=0.402
C382	net15#13	net16	3.04067e-18	$X=3.487 $Y=-0.431
C383	net3#11	net16#6	3.71842e-18	$X=4.314 $Y=1.3085
C384	net16#22	net16#16	3.75897e-18	$X=0.6045 $Y=1.0635
C385	CLK#11	XI15/net2#2	8.92454e-19	$X=1.637 $Y=-0.949
C386	net15#9	XI18/net2#3	5.36269e-19	$X=2.9855 $Y=-0.3015
C387	net16#11	XI13/net2#2	2.80932e-18	$X=3.806 $Y=0.4675
C388	gnd!#1	net15#8	1.71378e-18	$X=2.6535 $Y=0.9605
C389	net16#18	gnd!#19	4.51127e-18	$X=2.8405 $Y=-0.703
C390	net13	XI15/net2	2.15047e-18	$X=1.639 $Y=-0.5005
C391	net13#6	Q#2	1.4476e-18	$X=2.3325 $Y=-1.0055
C392	net11#5	net16#6	4.65861e-18	$X=4.2225 $Y=1.3035
C393	net16#22	net16#14	7.25535e-18	$X=0.568 $Y=1.0105
C394	net13#5	net15#13	2.30408e-17	$X=2.643 $Y=-0.8535
C395	XI18/net2#4	XI18/net2	6.89481e-19	$X=3.4975 $Y=-0.567
C396	XI13/net2#3	net16#6	2.61875e-18	$X=4.0955 $Y=1.343
C397	net15#9	net11	1.41383e-17	$X=3.0175 $Y=0.646
C398	net2#16	net2#11	2.71931e-18	$X=3.648 $Y=-1.2465
C399	XI9/net2#2	CLK#2	3.25211e-19	$X=1.297 $Y=1.0175
C400	net15#9	gnd!#18	4.25178e-18	$X=2.8585 $Y=0.4685
C401	vdd!#16	CLK#17	3.52468e-17	$X=0.2125 $Y=0.745
C402	XI18/net2#2	net2	1.34498e-18	$X=4.014 $Y=-0.4745
C403	net15#9	gnd!#8	5.72755e-18	$X=2.8115 $Y=0.243
C404	Q#3	Q#2	1.98558e-18	$X=2.282 $Y=-0.9625
C405	net15#5	vdd!#29	5.76678e-18	$X=2.655 $Y=1.3395
C406	net16#29	net3#14	6.45731e-17	$X=1.9275 $Y=0.9595
C407	net16#26	XI13/net2#3	1.03889e-18	$X=3.6145 $Y=1.2385
C408	Q#9	net2#4	3.58117e-18	$X=4.2385 $Y=-1.324
C409	Q#7	net2#2	2.63555e-18	$X=4.2225 $Y=-0.9465
C410	XI15/net2#3	XI15/net2	3.48131e-19	$X=1.539 $Y=-0.505
C411	vdd!#9	CLK#12	4.85936e-18	$X=1.038 $Y=-1.462
C412	net16#29	net3#8	1.72191e-18	$X=1.685 $Y=0.614
C413	net16#22	gnd!#1	3.87468e-18	$X=0.7115 $Y=1.075
C414	XI13/net2#4	net16#11	6.54426e-19	$X=3.7215 $Y=0.6045
C415	vdd!#2	vdd!#3	6.37377e-18	$X=3.8545 $Y=-1.7605
C416	Q#6	net15#13	1.99998e-17	$X=2.7595 $Y=-1.018
C417	net15#13	net16#2	1.85076e-18	$X=3.0375 $Y=-1.2615
C418	vdd!#1	net2#4	5.67486e-18	$X=4.187 $Y=-1.3325
C419	net15#9	gnd!#19	3.31965e-18	$X=2.8315 $Y=-0.248
C420	CLK#8	XI9/net2	1.53707e-18	$X=1.4325 $Y=0.522
C421	CLK#17	vdd!#3	5.35564e-18	$X=0.2335 $Y=0.5955
C422	Q#2	net16#3	2.08515e-18	$X=2.6365 $Y=-0.91
C423	net2#11	net2#4	1.18397e-18	$X=4.01 $Y=-1.295
C424	net2#5	gnd!#20	6.94791e-18	$X=2.001 $Y=-0.486
C425	XI18/net2#2	XI18/net2	7.61199e-19	$X=3.5525 $Y=-0.468
C426	net2#16	net15#14	1.72408e-18	$X=3.481 $Y=-1.2655
C427	vdd!#16	gnd!#1	1.55776e-17	$X=2.266 $Y=1.0365
C428	net11#7	net3#13	1.32638e-17	$X=4.2595 $Y=0.512
C429	net15#3	vdd!#16	3.73641e-18	$X=2.9145 $Y=1.0275
C430	XI9/net2#5	CLK#8	3.75562e-18	$X=1.1105 $Y=0.5195
C431	net11#5	net16#7	4.99717e-19	$X=3.9105 $Y=1.3155
C432	XI9/net2#3	vdd!#21	2.0809e-18	$X=1.0785 $Y=1.503
C433	net13#5	net16#18	1.02745e-17	$X=2.722 $Y=-0.834
C434	net16#26	vdd!#32	1.864e-18	$X=3.487 $Y=1.283
C435	net15#7	net15#9	1.33e-17	$X=2.4655 $Y=0.5335
C436	net13#6	net16#3	1.0262e-18	$X=2.852 $Y=-0.9675
C437	CLK#15	XI15/net2	1.53707e-18	$X=1.4325 $Y=-0.503
C438	net2#14	XI15/net2#4	2.67879e-18	$X=1.371 $Y=-0.8945
C439	XI13/net2#3	net16#7	5.48185e-18	$X=3.7125 $Y=1.36
C440	XI18/net2#5	net2#4	3.72512e-19	$X=3.931 $Y=-1.32
C441	Q#6	net16#2	1.26561e-18	$X=2.829 $Y=-1.2715
C442	net16#22	XI9/net2#4	4.76983e-19	$X=0.98 $Y=0.983
C443	net16#29	gnd!#13	3.7321e-18	$X=1.0335 $Y=0.3615
C444	net15#13	vdd!#5	2.54354e-18	$X=2.9955 $Y=-1.4865
C445	net15#13	net2#6	7.94302e-19	$X=2.0615 $Y=-0.9555
C446	vdd!#3	gnd!#1	1.49989e-17	$X=2.4145 $Y=-1.07
C447	net16#5	XI18/net2#2	2.92317e-18	$X=3.106 $Y=-0.4485
C448	net16#26	net15#8	1.5591e-18	$X=2.7455 $Y=0.9825
C449	vdd!#32	net16#7	5.02224e-18	$X=3.64 $Y=1.3835
C450	vdd!#25	vdd!#29	2.12369e-18	$X=2.5645 $Y=1.3635
C451	net16#29	XI9/net2#3	2.03011e-18	$X=1.171 $Y=1.2715
C452	gnd!#23	CLK#8	3.77133e-18	$X=1.043 $Y=0.496
C453	net13#6	vdd!#13	6.10444e-18	$X=2.659 $Y=-1.3145
C454	Q#6	net16#18	6.6496e-19	$X=2.756 $Y=-0.865
C455	net16#29	net3#2	9.18016e-19	$X=2.2385 $Y=0.964
C456	Q#7	gnd!#1	4.95224e-18	$X=4.267 $Y=-1.0255
C457	net15#9	net13#4	1.13198e-18	$X=2.4545 $Y=-0.3265
C458	net3#11	vdd!#16	4.13596e-18	$X=4.34 $Y=1.26
C459	net2#16	XI18/net2#5	2.217e-18	$X=3.194 $Y=-1.294
C460	net15#9	gnd!#11	4.77806e-18	$X=2.332 $Y=0.233
C461	vdd!#1	net16	2.23577e-18	$X=3.8345 $Y=-0.7665
C462	CLK#9	CLK#8	2.06635e-18	$X=0.762 $Y=0.5375
C463	net11#4	net16#7	8.88247e-19	$X=3.481 $Y=1.351
C464	XI9/net2#4	XI9/net2	6.34726e-19	$X=1.5975 $Y=0.586
C465	gnd!#5	net16#11	2.88998e-18	$X=3.66 $Y=0.4485
C466	XI18/net2#2	gnd!#16	4.24078e-18	$X=3.867 $Y=-0.393
C467	net3#14	net3#6	4.17535e-18	$X=2.0435 $Y=1.005
C468	net16#26	net11#4	4.53746e-18	$X=3.1765 $Y=1.2135
C469	XI18/net2#4	gnd!#1	1.2977e-18	$X=3.1565 $Y=-0.849
C470	net2#11	net16	2.74666e-18	$X=3.6275 $Y=-0.852
C471	XI18/net2#4	net16#3	4.41778e-18	$X=3.0225 $Y=-0.8775
C472	vdd!#5	vdd!#3	5.21141e-18	$X=2.862 $Y=-1.6925
C473	gnd!#1	net3#13	6.17179e-18	$X=4.3505 $Y=0.5185
C474	net2#16	XI18/net2#4	1.93099e-18	$X=3.258 $Y=-0.9635
C475	net16#15	CLK#8	1.98239e-18	$X=0.8935 $Y=0.5305
C476	net15#9	gnd!#21	2.70543e-18	$X=2.3085 $Y=0.4685
C477	net11#6	gnd!#1	2.77936e-18	$X=4.0435 $Y=0.7595
C478	XI15/net2#3	CLK#15	3.90178e-18	$X=1.1105 $Y=-0.5005
C479	XI18/net2#4	net16#5	8.29907e-19	$X=3.0215 $Y=-0.5855
C480	net15#14	net16	3.63444e-18	$X=3.5015 $Y=-0.914
C481	Q#6	Q#4	9.44721e-19	$X=2.293 $Y=-1.2995
C482	net15#6	vdd!#16	1.12078e-18	$X=2.411 $Y=0.961
C483	net3#14	net3#7	2.44805e-18	$X=1.882 $Y=0.95
C484	net11#5	net3#12	5.79736e-18	$X=4.2765 $Y=1.049
C485	XI9/net2#2	gnd!#11	2.69465e-18	$X=1.7095 $Y=0.229
C486	gnd!#16	Q#10	1.47957e-17	$X=4.208 $Y=-0.4935
C487	net3#3	vdd!#16	1.65591e-18	$X=2.226 $Y=1.0265
C488	XI18/net2#2	net2#13	2.10562e-18	$X=3.594 $Y=-0.4255
C489	net2#16	vdd!#13	8.10375e-19	$X=3.0425 $Y=-1.3425
C490	XI15/net2#4	CLK#13	6.58987e-18	$X=1.1225 $Y=-0.8775
C491	Q#7	Q#9	7.83597e-18	$X=4.317 $Y=-1.264
C492	XI18/net2#5	net16	2.00423e-18	$X=3.3295 $Y=-0.7335
C493	vdd!#16	net16#6	5.16793e-18	$X=4.245 $Y=1.3635
C494	Q#6	net13#5	1.49803e-17	$X=2.258 $Y=-0.8395
C495	D#1	net3#8	2.17329e-17	$X=1.663 $Y=0.5365
C496	Q#10	gnd!#1	4.60747e-18	$X=4.2945 $Y=-0.532
C497	vdd!#18	CLK#3	1.39123e-18	$X=0.3475 $Y=1.5785
C498	net15#9	gnd!#20	2.23971e-18	$X=2.3085 $Y=-0.259
C499	net16#26	vdd!#29	1.47329e-18	$X=3.04 $Y=1.2735
C500	vdd!#32	net15	2.14913e-18	$X=3.1555 $Y=1.3555
C501	gnd!#22	CLK#15	4.2949e-18	$X=1.043 $Y=-0.477
C502	XI9/net2#5	CLK#9	6.7714e-19	$X=0.6945 $Y=0.5455
C503	vdd!#14	vdd!#13	2.25055e-18	$X=2.548 $Y=-1.351
C504	vdd!#25	net15#5	2.1577e-17	$X=2.3145 $Y=1.3395
C505	net13#5	gnd!#11	2.36554e-18	$X=2.2 $Y=-0.475
C506	vdd!#3	Q#9	5.17431e-18	$X=4.274 $Y=-1.3195
C507	net11#4	net15	4.18369e-18	$X=3.034 $Y=1.3335
C508	net16#9	vdd!#31	4.28498e-18	$X=3.559 $Y=1.358
C509	net15#8	vdd!#16	3.6949e-18	$X=2.6505 $Y=0.9695
C510	gnd!#13	XI9/net2#2	2.31793e-18	$X=1.406 $Y=0.2275
C511	XI18/net2#2	net15#11	2.37242e-17	$X=3.477 $Y=-0.43
C512	net15#9	net3#8	1.25123e-18	$X=1.974 $Y=0.5215
C513	net3#14	net15#6	6.908e-18	$X=2.396 $Y=0.9425
C514	net11#5	vdd!#16	4.65006e-18	$X=4.144 $Y=1.2425
C515	XI15/net2#4	XI15/net2	6.30816e-19	$X=1.5975 $Y=-0.567
C516	vdd!#29	net15	5.55907e-18	$X=2.987 $Y=1.352
C517	gnd!#23	CLK#9	2.00173e-18	$X=0.622 $Y=0.5205
C518	vdd!#3	net2#4	1.70977e-18	$X=4.199 $Y=-1.3315
C519	Q#7	vdd!#1	3.81493e-18	$X=4.1655 $Y=-1.2845
C520	net13#5	gnd!#20	3.68888e-18	$X=2.2465 $Y=-0.5505
C521	vdd!#7	vdd!#3	6.68865e-18	$X=1.9975 $Y=-1.7605
C522	net15#5	net15	1.25509e-18	$X=2.854 $Y=1.34
C523	net2#6	net13#5	4.6349e-18	$X=1.944 $Y=-0.885
C524	net3#14	net15#8	1.72505e-18	$X=2.61 $Y=0.9555
C525	XI15/net2#2	gnd!#11	2.65838e-18	$X=1.7095 $Y=-0.21
C526	XI9/net2#4	CLK#8	8.14878e-19	$X=1.1215 $Y=0.6045
C527	net3#16	XI13/net2#4	6.87685e-18	$X=3.937 $Y=0.8825
C528	net11#6	XI13/net2	2.63536e-18	$X=4.2415 $Y=0.5565
C529	XI9/net2#2	XI9/net2	7.19717e-19	$X=1.6525 $Y=0.487
C530	XI18/net2#3	XI18/net2#2	1.31675e-17	$X=3.2355 $Y=-0.4245
C531	XI18/net2#5	net16#2	7.44988e-18	$X=3.0155 $Y=-1.312
C532	vdd!#25	net15	8.12724e-19	$X=2.811 $Y=1.352
C533	net15#13	gnd!#1	1.58834e-18	$X=3.248 $Y=-0.986
C534	net16#15	CLK#9	6.16893e-18	$X=0.4455 $Y=0.5585
C535	net2#13	Q#10	2.54537e-18	$X=3.9765 $Y=-0.522
C536	vdd!#16	net16#7	4.14346e-18	$X=3.6595 $Y=1.3915
C537	net2#16	net2#9	6.49732e-18	$X=3.85 $Y=-0.9265
C538	vdd!#13	net16#2	4.73326e-18	$X=2.9375 $Y=-1.338
C539	net2#6	Q#6	9.0477e-18	$X=1.8235 $Y=-0.952
C540	Q#6	gnd!#11	1.74911e-18	$X=2.047 $Y=-0.4025
C541	net3#10	net15#5	9.78987e-19	$X=1.989 $Y=1.288
C542	vdd!#14	net13#6	2.1577e-17	$X=2.306 $Y=-1.3075
C543	net16#24	XI18/net2#4	4.6106e-18	$X=2.9895 $Y=-0.8505
C544	vdd!#5	XI18/net2#5	1.6001e-18	$X=2.979 $Y=-1.483
C545	gnd!#24	CLK#9	3.87291e-18	$X=0.376 $Y=0.5275
C546	net11#4	net3	5.65238e-19	$X=2.493 $Y=1.3335
C547	gnd!#1	XI13/net2#5	6.26145e-18	$X=3.765 $Y=0.519
C548	net2#11	Q#7	4.66974e-18	$X=3.7605 $Y=-1.2145
C549	gnd!#13	XI15/net2#2	2.35913e-18	$X=1.406 $Y=-0.2085
C550	net13	net2#5	1.39363e-17	$X=1.654 $Y=-0.502
C551	net13#6	net16#2	1.79571e-18	$X=2.764 $Y=-1.3025
C552	XI15/net2#2	XI15/net2	7.19717e-19	$X=1.6525 $Y=-0.468
C553	gnd!#19	XI18/net2#2	5.50394e-18	$X=3.117 $Y=-0.383
C554	gnd!#1	net11	6.30583e-18	$X=3.2445 $Y=0.759
C555	net2#16	net2#10	2.28279e-18	$X=3.654 $Y=-0.938
C556	CLK#8	XI9/net2#2	2.79194e-18	$X=1.206 $Y=0.4675
C557	net2#5	net13#5	2.47161e-18	$X=1.947 $Y=-0.6025
C558	vdd!#29	net3	1.86869e-18	$X=2.4635 $Y=1.352
C559	Q#6	net13#2	6.76858e-18	$X=1.817 $Y=-0.839
C560	XI13/net2#3	vdd!#16	6.55369e-18	$X=3.743 $Y=1.322
C561	net2#9	gnd!#1	3.54985e-18	$X=3.8695 $Y=-0.8925
C562	gnd!#8	net15#4	2.11437e-18	$X=2.995 $Y=0.474
C563	net15#5	net3	4.26413e-18	$X=2.3375 $Y=1.34
C564	vdd!#24	vdd!#28	2.61513e-18	$X=2.6845 $Y=1.7235
C565	vdd!#3	net16	3.71813e-18	$X=3.543 $Y=-0.2425
C566	gnd!#18	net15#3	4.74656e-18	$X=2.919 $Y=0.742
C567	net16#18	gnd!#1	2.02142e-18	$X=2.818 $Y=-0.8465
C568	vdd!#9	vdd!#3	9.82783e-18	$X=1.0045 $Y=-1.6925
C569	vdd!#15	CLK#14	7.86227e-18	$X=0.997 $Y=-1.039
C570	gnd!#8	net11#3	2.23107e-18	$X=3.0635 $Y=0.4175
C571	CLK#15	XI15/net2#2	3.21826e-18	$X=1.206 $Y=-0.4485
C572	vdd!#25	net3	5.53333e-18	$X=2.287 $Y=1.352
C573	Q#7	net15#14	1.64539e-18	$X=3.5735 $Y=-1.239
C574	XI15/net2#4	CLK#15	9.78775e-19	$X=1.1215 $Y=-0.5855
C575	net3#16	gnd!#3	1.08091e-18	$X=4.1075 $Y=0.233
C576	gnd!#11	net3#9	2.14665e-18	$X=2.0045 $Y=0.824
C577	vdd!#13	Q#4	2.14913e-18	$X=2.4555 $Y=-1.336
C578	net16#24	Q#1	1.36816e-18	$X=2.3265 $Y=-0.5685
C579	net3#10	net3	8.628e-19	$X=2.0935 $Y=1.318
C580	net2#7	net13#6	6.73827e-19	$X=1.9645 $Y=-1.2575
C581	net3#10	vdd!#25	6.26314e-18	$X=1.9155 $Y=1.303
C582	net11	net16#11	1.55552e-18	$X=3.603 $Y=0.563
C583	vdd!#16	net15	3.16192e-18	$X=3.006 $Y=1.351
C584	net15#9	gnd!#1	2.16822e-17	$X=2.651 $Y=0.441
C585	net2#13	gnd!#16	6.9448e-18	$X=3.8905 $Y=-0.4805
C586	net13#2	net2#6	3.4104e-17	$X=1.747 $Y=-0.8845
C587	net13#6	Q#4	4.21498e-18	$X=2.334 $Y=-1.314
C588	net15#13	XI18/net2	3.35181e-19	$X=3.545 $Y=-0.5435
C589	D#2	net3	2.76562e-19	$X=2.0425 $Y=1.314
C590	net16#29	vdd!	6.09678e-18	$X=1.156 $Y=1.0895
C591	vdd!#21	CLK#2	7.33886e-18	$X=1.0375 $Y=1.609
C592	gnd!#1	XI13/net2#4	6.10811e-19	$X=3.8475 $Y=0.868
C593	net16#16	CLK#3	1.97159e-18	$X=0.5285 $Y=1.1535
C594	net2#14	net13#6	2.72299e-18	$X=2.236 $Y=-1.2005
C595	net16#26	XI13/net2#4	9.26238e-19	$X=3.6805 $Y=0.947
C596	gnd!#8	net16#5	1.73364e-18	$X=2.9675 $Y=-0.3985
C597	vdd!#14	Q#4	5.51874e-18	$X=2.287 $Y=-1.3325
C598	vdd!#3	net2#11	3.504e-18	$X=3.6485 $Y=-1.244
C599	net13#5	gnd!#1	3.59511e-18	$X=2.322 $Y=-0.7545
C600	net16#4	gnd!#19	3.57378e-18	$X=2.8985 $Y=-0.6935
C601	CLK#14	CLK#13	2.49947e-18	$X=1.047 $Y=-0.888
C602	XI18/net2#3	gnd!#8	3.9004e-18	$X=3.032 $Y=-0.3375
C603	vdd!#3	net16#2	3.15728e-18	$X=2.968 $Y=-1.33
C604	net15#9	XI18/net2	4.71176e-19	$X=3.4885 $Y=-0.4235
C605	net11	net15#4	3.16989e-18	$X=3.059 $Y=0.6005
C606	vdd!#25	CLK#1	2.71048e-18	$X=1.8535 $Y=1.3605
C607	gnd!#1	net11#3	3.64694e-18	$X=3.1055 $Y=0.5175
C608	net2#6	gnd!#11	7.82364e-19	$X=1.821 $Y=-0.731
C609	vdd!#19	CLK#5	1.52931e-18	$X=0.335 $Y=1.072
C610	net15#13	net16#3	1.95009e-18	$X=3.009 $Y=-0.898
C611	net16#24	net2#10	1.87425e-18	$X=3.4935 $Y=-0.8715
C612	net15#13	net2#11	7.72193e-18	$X=3.5925 $Y=-1.198
C613	net15#13	net16#5	9.00018e-19	$X=3.008 $Y=-0.5545
C614	gnd!#15	gnd!#13	2.93223e-18	$X=0.4535 $Y=0.0775
C615	net16#29	vdd!#24	1.78556e-18	$X=1.821 $Y=1.64
C616	net2#14	vdd!#14	8.0146e-19	$X=2.101 $Y=-1.2665
C617	CLK#14	gnd!#13	1.38948e-18	$X=0.9995 $Y=-0.7405
C618	net2#7	vdd!#14	5.3549e-18	$X=1.9155 $Y=-1.284
C619	net11	net3#2	5.08095e-19	$X=2.476 $Y=0.924
C620	net15#9	net15#4	2.54289e-18	$X=2.963 $Y=0.545
C621	vdd!#16	CLK#5	1.03034e-18	$X=0.3445 $Y=1.0215
C622	net3#16	XI13/net2#2	5.45781e-19	$X=4.1635 $Y=0.4835
C623	vdd!#16	net3	3.16192e-18	$X=2.3105 $Y=1.351
C624	XI18/net2#3	gnd!#1	1.86369e-18	$X=3.07 $Y=-0.5
C625	vdd!#3	XI18/net2#4	1.22271e-18	$X=3.148 $Y=-0.878
C626	gnd!#17	XI13/net2#5	1.47957e-17	$X=3.6765 $Y=0.489
C627	vdd!#14	CLK#11	1.84742e-18	$X=1.861 $Y=-1.3415
C628	gnd!#1	net2	2.27642e-18	$X=4.2045 $Y=-0.5375
C629	vdd!#18	vdd!#16	6.29039e-18	$X=0.321 $Y=1.706
C630	XI9/net2#3	CLK#1	2.19077e-18	$X=1.502 $Y=1.344
C631	vdd!#3	net15#14	3.29769e-18	$X=3.4585 $Y=-1.266
C632	net2#14	net2#7	1.90217e-18	$X=1.7595 $Y=-1.2215
C633	net11#4	vdd!#16	7.8184e-18	$X=3.088 $Y=1.293
C634	net13#5	net16#5	1.02645e-18	$X=2.853 $Y=-0.5495
C635	Q#6	vdd!#5	1.39855e-17	$X=2.678 $Y=-1.5175
C636	net2#16	net2#3	2.09842e-18	$X=3.9965 $Y=-1.033
C637	net3#16	vdd!#16	5.64194e-18	$X=4.024 $Y=0.924
C638	net13#2	gnd!#11	3.9158e-18	$X=1.8135 $Y=-0.4785
C639	net11	net15#2	3.32918e-18	$X=3.0545 $Y=0.924
C640	net15#9	net3#4	1.65618e-18	$X=2.3585 $Y=0.545
C641	gnd!#21	net3#3	4.9964e-18	$X=2.221 $Y=0.7645
C642	net16#29	vdd!#25	1.52385e-18	$X=2.0205 $Y=1.313
C643	net13#2	net2#5	1.78557e-17	$X=1.743 $Y=-0.604
C644	XI9/net2#3	CLK#2	2.03192e-18	$X=1.116 $Y=1.4535
C645	gnd!#3	gnd!#1	7.4497e-18	$X=4.0875 $Y=-0.076
C646	XI9/net2#3	vdd!#25	1.26866e-18	$X=1.7015 $Y=1.3385
C647	D#2	net3#10	1.38242e-17	$X=1.674 $Y=1.264
C648	net13#2	gnd!#1	1.45796e-18	$X=1.7145 $Y=-0.7555
C649	XI15/net2#5	CLK#11	1.9662e-18	$X=1.4955 $Y=-1.324
C650	net15#6	net11#4	1.11911e-18	$X=2.6295 $Y=1.0555
C651	net15#9	Q#1	8.8397e-19	$X=2.3585 $Y=-0.4045
C652	net11#5	net16#8	7.53524e-19	$X=3.766 $Y=1.119
C653	net2#14	net13#3	5.53279e-18	$X=1.596 $Y=-1.1845
C654	net3#16	net3#13	9.05373e-19	$X=4.3105 $Y=0.5975
C655	vdd!#16	CLK#1	4.52494e-18	$X=1.6705 $Y=1.363
C656	net15#13	XI18/net2#5	7.17813e-18	$X=3.1305 $Y=-1.2155
C657	net13#5	Q#1	3.58335e-18	$X=2.313 $Y=-0.5865
C658	Q#6	vdd!#7	1.51427e-17	$X=2.0205 $Y=-1.568
C659	gnd!#1	net15#7	2.31688e-18	$X=2.4105 $Y=0.5525
C660	net11#3	XI13/net2#5	1.27736e-18	$X=3.412 $Y=0.5215
C661	net15#11	net2#13	2.03898e-17	$X=3.5735 $Y=-0.5175
C662	net16#26	net16#9	5.8367e-18	$X=3.479 $Y=1.0895
C663	CLK#20	gnd!#1	7.90438e-18	$X=0.76 $Y=-0.8635
C664	XI9/net2#3	CLK#6	5.08414e-18	$X=1.1005 $Y=1.304
C665	vdd!#21	vdd!#16	9.4065e-18	$X=0.996 $Y=1.711
C666	vdd!#3	XI18/net2#5	3.68215e-18	$X=3.059 $Y=-1.3035
C667	net16#18	Q#2	1.01032e-18	$X=2.558 $Y=-0.8945
C668	Q#3	gnd!#20	4.53993e-18	$X=2.2295 $Y=-0.7725
C669	gnd!#5	gnd!#1	9.26684e-18	$X=3.553 $Y=0.0895
C670	XI13/net2#4	net11#5	2.12762e-18	$X=4.0455 $Y=1.0915
C671	net16#26	vdd!#16	5.63159e-18	$X=3.253 $Y=1.114
C672	vdd!#22	CLK#6	2.97613e-18	$X=1.0525 $Y=1.32
C673	net13#4	gnd!#1	1.92035e-18	$X=2.41 $Y=-0.5005
C674	net2#14	XI15/net2#5	3.43203e-18	$X=1.3065 $Y=-1.226
C675	vdd!#3	CLK#11	4.52236e-18	$X=1.674 $Y=-1.345
C676	gnd!#1	net16#16	2.3648e-18	$X=0.589 $Y=1.053
C677	net15#13	vdd!#13	2.11223e-18	$X=2.988 $Y=-1.264
C678	net13#3	net2#7	1.38242e-17	$X=1.6795 $Y=-1.2385
C679	net16#22	XI9/net2#3	5.36337e-19	$X=0.928 $Y=1.2
C680	net16#26	net15#3	2.58743e-18	$X=3.0095 $Y=1.0355
C681	XI13/net2#2	net11#6	6.8369e-18	$X=4.1415 $Y=0.4995
C682	net16#13	CLK#6	8.39483e-19	$X=0.924 $Y=1.308
C683	XI9/net2#2	gnd!#21	4.03824e-18	$X=1.967 $Y=0.412
C684	net2#16	net16#4	1.21481e-18	$X=2.9925 $Y=-0.939
C685	Q#6	vdd!#9	1.37422e-18	$X=1.263 $Y=-1.519
C686	gnd!#23	XI9/net2#5	1.47957e-17	$X=1.077 $Y=0.489
C687	Q#7	net2#3	2.07076e-17	$X=4.1295 $Y=-0.993
C688	XI15/net2#5	CLK#12	7.78119e-18	$X=1.1155 $Y=-1.312
C689	CLK#17	gnd!#1	1.55423e-17	$X=0.206 $Y=0.6835
C690	CLK#20	gnd!#13	7.2936e-18	$X=0.845 $Y=-0.423
C691	vdd!#9	CLK#14	1.35312e-18	$X=0.996 $Y=-1.122
C692	net2#14	vdd!#15	2.22364e-18	$X=1.153 $Y=-1.2775
C693	vdd!#15	CLK#12	6.22608e-18	$X=1.0375 $Y=-1.338
C694	net3#14	net15#3	1.40707e-18	$X=2.7935 $Y=0.9925
C695	XI9/net2#3	CLK#3	7.094e-19	$X=0.695 $Y=1.3465
C696	net16#24	vdd!#3	1.2827e-18	$X=2.4485 $Y=-0.8745
C697	net2#12	net2#3	1.33207e-17	$X=3.9185 $Y=-0.9885
C698	net11#3	gnd!#17	3.67815e-18	$X=3.3235 $Y=0.491
C699	vdd!#24	vdd!#16	6.38816e-18	$X=1.991 $Y=1.7795
C700	net15#13	net13#6	2.44658e-18	$X=2.671 $Y=-1.191
C701	net15#5	vdd!#16	6.28948e-18	$X=2.4035 $Y=1.3245
C702	XI13/net2#4	net16#7	1.6919e-18	$X=3.748 $Y=1.194
C703	net3#14	vdd!#16	7.74023e-19	$X=2.3055 $Y=0.929
C704	vdd!#22	CLK#3	1.67054e-18	$X=0.6275 $Y=1.37
C705	net13#2	XI15/net2	8.97223e-19	$X=1.671 $Y=-0.541
C706	vdd!#13	net16#18	2.24354e-18	$X=2.834 $Y=-0.9745
C707	gnd!#8	gnd!#1	6.56002e-18	$X=2.9145 $Y=0.0945
C708	XI15/net2#2	gnd!#20	3.90129e-18	$X=1.967 $Y=-0.393
C709	vdd!#3	CLK#12	7.41967e-18	$X=1.094 $Y=-1.33
C710	XI9/net2#3	D#2	9.51497e-18	$X=1.425 $Y=1.2755
C711	gnd!#1	net3#8	6.17179e-18	$X=1.771 $Y=0.538
C712	CLK#20	gnd!#15	1.78988e-18	$X=0.39 $Y=-0.105
C713	XI9/net2#2	D#1	2.14401e-17	$X=1.5765 $Y=0.445
C714	net3#14	net3#3	9.52554e-19	$X=2.244 $Y=0.996
C715	net16#13	CLK#3	5.91409e-18	$X=0.451 $Y=1.35
C716	net15#9	net15#2	1.49454e-18	$X=2.968 $Y=0.8945
C717	vdd!#7	net2#6	1.09334e-18	$X=1.847 $Y=-1.23
C718	XI13/net2#4	vdd!#16	1.92939e-18	$X=3.833 $Y=0.895
C719	vdd!#19	CLK#3	5.54648e-18	$X=0.375 $Y=1.365
C720	vdd!#22	CLK#2	2.72924e-18	$X=1.0365 $Y=1.4775
C721	vdd!#16	CLK#3	1.0595e-17	$X=0.43 $Y=1.3705
C722	net16#15	XI9/net2#5	2.55471e-18	$X=0.8585 $Y=0.539
C723	net2#5	gnd!#1	5.19487e-18	$X=1.771 $Y=-0.5165
C724	gnd!#22	XI15/net2#3	1.47957e-17	$X=1.077 $Y=-0.47
C725	net2#16	vdd!#2	9.63079e-19	$X=3.802 $Y=-1.6375
C726	vdd!#28	vdd!#31	2.59102e-18	$X=3.0855 $Y=1.707
C727	net16#29	gnd!#1	1.59744e-17	$X=1.232 $Y=1.0295
C728	Q#7	net2#9	1.0926e-18	$X=3.907 $Y=-0.908
C729	XI9/net2#5	XI9/net2#2	1.31675e-17	$X=1.3355 $Y=0.4435
C730	net3#7	net3#2	1.17014e-18	$X=2.1265 $Y=0.9585
C731	XI13/net2#3	net16#8	1.3037e-18	$X=3.689 $Y=1.121
C732	net2#14	vdd!#3	5.32792e-18	$X=1.7675 $Y=-1.0575
C733	net16#29	net3#6	2.3264e-18	$X=1.947 $Y=1.0255
C734	net3#14	gnd!#8	1.01968e-18	$X=2.677 $Y=0.4185
C735	net3#6	vdd!#24	4.35436e-18	$X=2.001 $Y=1.1895
C736	gnd!#18	gnd!#17	2.61841e-18	$X=3.25 $Y=0.464
C737	CLK#20	gnd!#22	3.02708e-18	$X=0.9245 $Y=-0.527
C738	net16#22	vdd!#16	4.96861e-18	$X=0.712 $Y=1.1015
C739	net2#10	Q#7	1.15527e-18	$X=3.7545 $Y=-0.9045
C740	net11	net16#9	1.67699e-18	$X=3.4465 $Y=0.979
C741	XI15/net2#2	net13	2.03504e-17	$X=1.576 $Y=-0.42
C742	net16#14	XI9/net2#3	1.80722e-18	$X=0.718 $Y=1.0795
C743	XI15/net2#5	net13#3	9.16487e-18	$X=1.4155 $Y=-1.2485
C744	net13#5	Q#2	3.57844e-18	$X=2.313 $Y=-0.9045
C745	net15#13	XI18/net2#2	2.71685e-18	$X=3.4315 $Y=-0.4875
C746	CLK#17	gnd!#13	2.70415e-18	$X=0.5625 $Y=0.351
C747	net13#2	vdd!#7	8.55835e-19	$X=1.855 $Y=-1.299
C748	gnd!#23	XI9/net2#2	5.50394e-18	$X=1.217 $Y=0.402
C749	gnd!#11	gnd!#1	1.0945e-17	$X=2.02 $Y=0.0095
C750	net16#29	XI9/net2#5	1.25924e-18	$X=1.172 $Y=0.588
C751	net3#13	XI13/net2	3.70251e-18	$X=4.292 $Y=0.524
C752	Q#6	vdd!#13	1.46351e-18	$X=2.7005 $Y=-1.2785
C753	net11#5	net3#11	1.92991e-17	$X=4.273 $Y=1.246
C754	vdd!#2	net2#9	1.10316e-18	$X=3.877 $Y=-1.0585
C755	net3#12	vdd!#16	7.92881e-19	$X=4.3455 $Y=0.8965
C756	net15#8	net11	2.28814e-18	$X=2.769 $Y=0.9285
C757	XI18/net2#4	net16#2	1.25413e-18	$X=3.053 $Y=-1.135
C758	net11#7	XI13/net2	2.30588e-18	$X=4.2385 $Y=0.5185
C759	XI15/net2#3	XI15/net2#2	1.31675e-17	$X=1.3355 $Y=-0.4245
C760	CLK#17	CLK#9	8.44447e-19	$X=0.375 $Y=0.5785
C761	gnd!#1	XI9/net2#5	6.26145e-18	$X=1.1845 $Y=0.519
C762	net3#14	gnd!#11	2.59444e-18	$X=2.159 $Y=0.4485
C763	net15#3	net11	1.02799e-17	$X=3.0235 $Y=0.946
C764	gnd!#13	CLK#8	1.99605e-18	$X=1.064 $Y=0.454
C765	net2#10	net2#2	1.74104e-18	$X=4.009 $Y=-0.915
C766	net3#16	net16#26	4.57017e-17	$X=3.6815 $Y=0.994
C767	net3#7	vdd!#24	1.05631e-18	$X=1.8445 $Y=1.242
C768	net15#13	net16#4	3.1426e-18	$X=2.965 $Y=-0.908
C769	net15#9	XI18/net2#2	2.09641e-18	$X=3.242 $Y=-0.078
C770	net16#15	gnd!#23	3.67435e-18	$X=0.756 $Y=0.5035
C771	net13#5	net16#3	1.9092e-18	$X=2.8505 $Y=-0.861
C772	CLK#17	gnd!#23	1.26515e-18	$X=0.805 $Y=0.5065
C773	XI13/net2#5	XI13/net2	4.54177e-19	$X=4.1395 $Y=0.524
C774	gnd!#1	CLK#9	2.84277e-18	$X=0.4215 $Y=0.557
C775	gnd!#8	gnd!#5	3.10533e-18	$X=3.24 $Y=0.094
C776	CLK#17	gnd!#15	2.53718e-18	$X=0.273 $Y=0.225
C777	Q#10	net2	5.56972e-18	$X=4.246 $Y=-0.5385
C778	net3#10	vdd!#16	2.91682e-18	$X=1.767 $Y=1.2775
C779	gnd!#13	gnd!#1	1.04739e-17	$X=1.0175 $Y=0.0095
C780	gnd!#18	net11#3	1.47957e-17	$X=3.0215 $Y=0.499
C781	net11#6	XI13/net2#4	3.53163e-17	$X=3.95 $Y=0.8355
C782	XI15/net2#3	gnd!#1	5.14377e-18	$X=1.1845 $Y=-0.5
C783	Q#6	net13#6	7.32373e-18	$X=2.3325 $Y=-1.202
C784	gnd!#22	XI15/net2#2	5.602e-18	$X=1.217 $Y=-0.383
C785	vdd!#22	XI9/net2#3	2.37627e-17	$X=1.075 $Y=1.3455
C786	net15#13	XI18/net2#4	2.67885e-17	$X=3.194 $Y=-0.904
C787	net2#10	Q#10	1.07689e-18	$X=3.9525 $Y=-0.728
C788	gnd!#3	XI13/net2#2	1.54035e-17	$X=4.1515 $Y=0.136
C789	vdd!#1	Q#9	2.08484e-17	$X=4.2175 $Y=-1.327
C790	gnd!#1	XI13/net2#2	2.05659e-17	$X=4.1685 $Y=0.3155
C791	gnd!#16	net2	3.78016e-18	$X=4.176 $Y=-0.5085
C792	net2#16	net16#24	4.8502e-18	$X=2.994 $Y=-1.0525
C793	Q#6	Q#2	6.86667e-19	$X=2.2945 $Y=-0.9425
C794	net2#3	net2#2	4.90391e-18	$X=4.173 $Y=-0.949
C795	vdd!#3	Q#7	2.34541e-17	$X=4.211 $Y=-1.1195
C796	net13#5	vdd!#14	1.10138e-18	$X=2.259 $Y=-1.0975
C797	vdd!#31	vdd!#16	7.09882e-18	$X=3.547 $Y=1.711
C798	gnd!#24	gnd!#23	2.47633e-18	$X=0.65 $Y=0.464
C799	net15#13	Q#3	8.96294e-19	$X=2.3855 $Y=-1.003
C800	net2#10	net2#12	1.23622e-17	$X=3.8225 $Y=-0.9635
C801	net15#6	net15#3	1.21864e-18	$X=2.6465 $Y=0.9835
C802	net2#13	net2	2.31495e-18	$X=4.0125 $Y=-0.528
C803	gnd!#13	CLK#15	1.99671e-18	$X=1.064 $Y=-0.435
C804	CLK#17	net16#15	3.26313e-18	$X=0.426 $Y=0.59
C805	net15#6	net15#9	8.77672e-18	$X=2.46 $Y=0.858
C806	gnd!#5	XI13/net2#2	2.31793e-18	$X=3.965 $Y=0.2365
C807	net2#3	gnd!#1	8.91077e-19	$X=4.0755 $Y=-0.9695
C808	vdd!#3	XI18/net2	6.14408e-19	$X=3.5615 $Y=-0.511
C809	gnd!#15	gnd!#1	2.03232e-18	$X=0.3265 $Y=0.0955
C810	Q#6	vdd!#14	6.01763e-18	$X=2.1895 $Y=-1.2675
C811	vdd!#9	CLK#20	6.03088e-18	$X=0.8875 $Y=-1.4315
C812	net3#7	net3#6	8.12235e-19	$X=1.9205 $Y=1.0005
C813	net3#14	net16#26	7.06008e-17	$X=2.8285 $Y=0.996
C814	XI15/net2#4	net13#3	1.58398e-18	$X=1.447 $Y=-1.075
C815	net16#29	net3#7	4.84997e-18	$X=1.6985 $Y=0.9785
C816	XI9/net2#4	D#1	1.31362e-17	$X=1.451 $Y=0.6655
C817	XI13/net2#5	net16#11	3.64991e-18	$X=3.7105 $Y=0.5195
C818	vdd!#3	net2#7	4.13183e-18	$X=1.77 $Y=-1.259
C819	CLK#17	gnd!#24	4.26998e-18	$X=0.277 $Y=0.521
C820	net2#6	net13#6	8.66275e-19	$X=1.9975 $Y=-1.056
C821	net2#3	gnd!#3	1.61665e-18	$X=4.0965 $Y=-0.6325
C822	XI13/net2#3	net11#5	9.45854e-18	$X=4.014 $Y=1.2665
C823	net15#6	net3#2	5.39581e-18	$X=2.35 $Y=0.955
C824	net16#13	XI9/net2#3	7.85338e-19	$X=0.8195 $Y=1.3205
C825	net3#16	net3#12	1.46405e-17	$X=4.315 $Y=0.8875
C826	vdd!#15	XI15/net2#5	2.37627e-17	$X=1.075 $Y=-1.3265
C827	net3#9	net3#2	2.60509e-18	$X=2.129 $Y=0.923
C828	net16#14	CLK#6	9.90772e-19	$X=0.841 $Y=1.164
C829	CLK#17	CLK	7.537e-18	$X=0.3895 $Y=0.8785
C830	gnd!#8	gnd!	1.05916e-17	$X=2.9155 $Y=0.097
C831	CLK	vdd!#19	8.74433e-18	$X=0.411 $Y=1.202
C832	gnd!#5	net16	2.08359e-18	$X=3.5695 $Y=-0.0985
C833	gnd!#1	CLK	1.50303e-18	$X=0.5765 $Y=0.9675
C834	net16	net16#9	3.67907e-17	$X=3.556 $Y=0.5085
C835	CLK	vdd!#16	1.9834e-18	$X=0.578 $Y=1.003
C836	gnd!#24	CLK	4.62477e-18	$X=0.384 $Y=0.629
C837	CLK	CLK#5	3.90782e-18	$X=0.3625 $Y=1.015
C838	XI18/net2#2	net16#10	3.56001e-19	$X=3.5815 $Y=0.4215
C839	CLK	net16#14	2.94301e-17	$X=0.521 $Y=0.977
C840	CLK	vdd!#21	2.12187e-18	$X=0.778 $Y=1.3805
C841	net16#14	CLK#7	3.39245e-18	$X=0.7305 $Y=0.9475
C842	CLK	vdd!	1.96696e-18	$X=0.542 $Y=0.9845
C843	net15#2	net16#10	2.93e-18	$X=3.227 $Y=0.9315
C844	net11	net16	8.78393e-18	$X=3.4435 $Y=0.181
C845	CLK#4	CLK#7	3.67816e-18	$X=0.6095 $Y=0.941
C846	net16	XI13/net2#4	2.39724e-17	$X=3.714 $Y=0.327
C847	CLK	XI9/net2#4	2.42975e-17	$X=0.9605 $Y=0.9235
C848	XI13/net2#4	net16#10	3.49252e-18	$X=3.7245 $Y=0.8825
C849	gnd!#11	gnd!	9.11625e-18	$X=2.011 $Y=0.0115
C850	gnd!#18	gnd!	2.20737e-18	$X=2.912 $Y=0.4715
C851	gnd!#17	net16	4.41673e-18	$X=3.5745 $Y=0.202
C852	net11#6	net16#10	1.03763e-18	$X=3.7685 $Y=0.8515
C853	net16#22	CLK	2.57735e-18	$X=0.625 $Y=1.0445
C854	gnd!#19	gnd!	1.61381e-18	$X=2.877 $Y=-0.4335
C855	gnd!#23	gnd!	2.48418e-18	$X=0.9855 $Y=0.454
C856	net16	net16#10	4.49975e-18	$X=3.613 $Y=0.469
C857	net16#29	CLK	2.03616e-18	$X=0.684 $Y=1.0085
C858	net16#10	net16#9	1.02316e-17	$X=3.601 $Y=0.9725
C859	gnd!#13	gnd!	1.14331e-17	$X=0.997 $Y=0.0115
C860	net3#16	net16	1.84778e-18	$X=3.727 $Y=0.1165
C861	gnd!#22	gnd!	4.13253e-18	$X=0.9855 $Y=-0.4335
C862	gnd!#3	gnd!	9.00157e-18	$X=4.095 $Y=-0.0755
C863	gnd!#13	CLK	3.52358e-18	$X=0.708 $Y=0.6095
C864	gnd!	gnd!#1	3.06363e-17	$X=2.478 $Y=0.061
C865	gnd!#16	gnd!	4.5685e-18	$X=4.1065 $Y=-0.451
C866	XI9/net2#4	CLK#7	5.68871e-18	$X=1.131 $Y=0.8965
C867	gnd!#15	gnd!	3.89896e-18	$X=0.3185 $Y=0.0965
C868	gnd!#21	gnd!	2.37386e-18	$X=2.215 $Y=0.4715
C869	gnd!#24	gnd!	2.17415e-18	$X=0.3235 $Y=0.4715
C870	net16#16	CLK#7	2.2736e-18	$X=0.717 $Y=1.013
C871	gnd!#5	gnd!	6.63095e-18	$X=3.5595 $Y=0.092
C872	CLK#7	CLK#2	9.77239e-19	$X=1.0585 $Y=1.2205
C873	net16#26	net16	1.93249e-18	$X=3.4805 $Y=0.202
C874	net16	vdd!	2.08376e-18	$X=3.5665 $Y=-0.2125
C875	gnd!#20	gnd!	2.13789e-18	$X=2.215 $Y=-0.451
C876	net16#10	vdd!	5.6489e-18	$X=3.641 $Y=0.8845
C877	net11	net16#10	4.27504e-18	$X=3.5305 $Y=0.8525
C878	CLK	CLK#2	1.25907e-18	$X=0.8955 $Y=1.3565
C879	CLK	vdd!#22	5.97028e-18	$X=0.794 $Y=1.2105
C880	gnd!#17	gnd!	2.56867e-18	$X=3.574 $Y=0.454
C881	CLK#7	vdd!	8.4094e-18	$X=1.0415 $Y=0.9085
C882	CLK	CLK#4	3.36193e-18	$X=0.4355 $Y=0.961
C883	gnd!#23	CLK	5.41943e-18	$X=0.847 $Y=0.615
C884	CLK	CLK#7	6.49923e-18	$X=0.877 $Y=0.933
C885	CLK#15	CLK#8	3.776e-19	$X=1.077 $Y=0.0095
C886	CLK#9	CLK#7	4.76778e-19	$X=0.627 $Y=0.6785
C887	CLK#2	CLK#1	5.80811e-19	$X=1.414 $Y=1.44
C888	CLK#20	CLK#13	6.14147e-19	$X=1.0325 $Y=-0.884
C889	CLK#20	CLK#15	6.4952e-19	$X=1.0335 $Y=-0.5445
C890	CLK#14	CLK#8	6.82735e-19	$X=1.0475 $Y=-0.059
C891	CLK	CLK#15	6.83034e-19	$X=0.977 $Y=-0.2225
C892	gnd!#24	CLK#8	7.15713e-19	$X=0.816 $Y=0.5025
C893	gnd!#23	CLK#7	7.26768e-19	$X=1.0085 $Y=0.6675
C894	vdd!#16	CLK#8	2.17863e-19	$X=1.0825 $Y=0.525
C895	vdd!#3	CLK#14	2.85361e-19	$X=1.017 $Y=-0.903
C896	vdd!#29	CLK#1	3.91771e-19	$X=2.0925 $Y=1.3605
C897	vdd!#19	CLK#6	4.02554e-19	$X=0.8865 $Y=1.3165
C898	vdd!#13	CLK#11	4.04894e-19	$X=2.0985 $Y=-1.3465
C899	vdd!#28	CLK#1	4.07072e-19	$X=2.396 $Y=1.5625
C900	vdd!#14	CLK#12	4.22937e-19	$X=1.5345 $Y=-1.3325
C901	vdd!#7	CLK#11	4.81643e-19	$X=1.7715 $Y=-1.4765
C902	vdd!#25	CLK#6	5.13017e-19	$X=1.3605 $Y=1.3165
C903	vdd!#22	CLK#7	6.51922e-19	$X=1.0165 $Y=1.0955
C904	vdd!#15	CLK#11	6.84e-19	$X=1.422 $Y=-1.3465
C905	vdd!#16	CLK#7	7.40224e-19	$X=1.0535 $Y=0.9185
C906	vdd!#22	CLK#1	7.52318e-19	$X=1.431 $Y=1.3655
C907	net16#14	CLK#1	2.06034e-19	$X=1.0565 $Y=1.1555
C908	net16#22	CLK#7	2.18836e-19	$X=0.901 $Y=0.98
C909	net16#22	CLK#2	4.24671e-19	$X=0.9185 $Y=1.361
C910	net16#29	CLK#6	4.63196e-19	$X=1.082 $Y=1.286
C911	net16#22	CLK#4	5.02945e-19	$X=0.4755 $Y=0.9865
C912	net16#22	CLK#3	6.46862e-19	$X=0.5155 $Y=1.2615
C913	net16#24	CLK#14	6.51935e-19	$X=1.193 $Y=-0.8855
C914	net16#16	CLK#6	7.28458e-19	$X=0.8065 $Y=1.1675
C915	net16#29	CLK#7	7.35329e-19	$X=1.056 $Y=0.9315
C916	net16#15	CLK#7	7.40091e-19	$X=0.7725 $Y=0.731
C917	XI15/net2#5	CLK#13	2.59666e-19	$X=1.0995 $Y=-0.98
C918	XI9/net2#3	CLK#7	1.89224e-19	$X=1.093 $Y=1.0665
C919	XI9/net2#4	CLK#9	2.97488e-19	$X=0.633 $Y=0.6425
C920	Q#2	net16#2	3.28711e-19	$X=2.518 $Y=-1.056
C921	Q#9	net16	3.49727e-19	$X=3.9525 $Y=-0.7835
C922	Q#1	net16#3	4.54546e-19	$X=2.657 $Y=-0.718
C923	net16#29	Q#1	4.86137e-19	$X=2.2295 $Y=-0.4235
C924	Q#7	net16#2	5.21391e-19	$X=3.1965 $Y=-1.284
C925	Q#6	net16#4	6.3502e-19	$X=2.8175 $Y=-0.904
C926	net16#24	Q#3	6.47809e-19	$X=2.267 $Y=-0.978
C927	Q	net2	2.38064e-19	$X=4.272 $Y=-0.7205
C928	net2#14	Q#3	3.51908e-19	$X=2.182 $Y=-1.0015
C929	net2#6	Q#3	5.83981e-19	$X=2.0495 $Y=-0.976
C930	net2#7	Q#4	6.18298e-19	$X=2.093 $Y=-1.299
C931	gnd!#17	net16#9	2.98074e-19	$X=3.5655 $Y=0.728
C932	net16#26	gnd!#1	3.8656e-19	$X=3.277 $Y=1.061
C933	net16#22	gnd!#23	4.20546e-19	$X=0.872 $Y=0.688
C934	net16#26	gnd!#17	4.36536e-19	$X=3.5165 $Y=0.596
C935	net16#26	gnd!#18	4.42478e-19	$X=3.0005 $Y=0.6115
C936	gnd!#17	net16#10	4.7549e-19	$X=3.6105 $Y=0.67
C937	gnd!#20	net16#5	5.07905e-19	$X=2.716 $Y=-0.4835
C938	gnd!#18	net16#11	8.14212e-19	$X=3.416 $Y=0.5025
C939	vdd!#28	vdd!#16	1.35245e-18	$X=2.9035 $Y=1.706
C940	vdd!#22	vdd!	1.70135e-18	$X=0.9795 $Y=1.377
C941	net2#10	gnd!#1	7.23598e-19	$X=3.662 $Y=-0.8745
C942	net13	Q#1	2.34677e-19	$X=2.013 $Y=-0.5185
C943	net13#3	Q#4	2.73607e-19	$X=2.06 $Y=-1.2915
C944	net16#24	vdd!#13	3.28488e-19	$X=2.774 $Y=-1.224
C945	net16#13	vdd!	4.49465e-19	$X=0.5095 $Y=1.3275
C946	vdd!#28	net16#7	4.6402e-19	$X=3.1985 $Y=1.5855
C947	vdd!#1	net16#2	6.05855e-19	$X=3.435 $Y=-1.3325
C948	vdd!#5	net16#4	6.1775e-19	$X=2.902 $Y=-1.114
C949	net16#29	vdd!#22	6.53847e-19	$X=1.0115 $Y=1.3245
C950	vdd!#13	net16	6.92785e-19	$X=3.229 $Y=-0.775
C951	vdd!#14	net16#2	7.96914e-19	$X=2.67 $Y=-1.3325
C952	vdd!#2	net16	7.98446e-19	$X=3.715 $Y=-0.924
C953	vdd!#32	net16#6	8.01911e-19	$X=4.022 $Y=1.3655
C954	vdd!#29	net16#7	8.55689e-19	$X=3.39 $Y=1.378
C955	net16#22	vdd!#22	9.60154e-19	$X=0.8345 $Y=1.234
C956	net16#24	vdd!	9.78148e-19	$X=2.455 $Y=-0.82
C957	net16#29	vdd!#21	1.10853e-18	$X=1.0105 $Y=1.5855
C958	vdd!#5	net16#18	1.2052e-18	$X=2.8315 $Y=-1.036
C959	gnd!#1	net3#12	7.00477e-19	$X=4.3555 $Y=0.8805
C960	vdd!#2	net2#10	6.35991e-19	$X=3.7375 $Y=-1.1535
C961	net2#7	vdd!	6.64066e-19	$X=1.7645 $Y=-1.2535
C962	net2#11	vdd!	7.6807e-19	$X=3.664 $Y=-1.2375
C963	net16#24	net16#3	6.80567e-19	$X=2.927 $Y=-0.877
C964	net16#8	net16#6	6.94939e-19	$X=3.8015 $Y=1.1495
C965	net16#29	net16#14	7.95285e-19	$X=0.574 $Y=0.9855
C966	net16#18	net16#3	1.17494e-18	$X=2.8985 $Y=-0.867
C967	net16#29	net16#15	1.22362e-18	$X=0.591 $Y=0.6245
C968	net3#16	vdd!#31	3.58216e-19	$X=3.7385 $Y=1.455
C969	net3#3	vdd!#24	5.90269e-19	$X=2.152 $Y=1.259
C970	net3#9	vdd!	6.7906e-19	$X=2.0045 $Y=0.9005
C971	net15#13	gnd!#5	4.23914e-19	$X=3.459 $Y=-0.3325
C972	gnd!#21	net15#4	4.25485e-19	$X=2.7195 $Y=0.5275
C973	net2#6	net16#3	2.07075e-19	$X=2.57 $Y=-0.9025
C974	net2#5	net16#5	2.46642e-19	$X=2.59 $Y=-0.506
C975	net2#6	net16#4	2.85386e-19	$X=2.4385 $Y=-0.91
C976	net16#24	net2#5	2.90573e-19	$X=1.8885 $Y=-0.575
C977	net16	net2#2	3.047e-19	$X=4.057 $Y=-0.762
C978	net2#11	net16#2	3.21375e-19	$X=3.347 $Y=-1.2775
C979	net16#3	net2#2	3.56507e-19	$X=3.6085 $Y=-0.91
C980	net2#13	net16#11	4.1395e-19	$X=3.6725 $Y=0.169
C981	net16#3	net2#3	4.28151e-19	$X=3.3375 $Y=-0.914
C982	net2#10	net16#3	4.81642e-19	$X=3.243 $Y=-0.882
C983	net2#16	net16	5.18524e-19	$X=3.565 $Y=-0.466
C984	net16#29	net2#5	6.18081e-19	$X=1.686 $Y=-0.3145
C985	net3#11	net16#7	2.53295e-19	$X=4.0255 $Y=1.32
C986	net3#12	net16#10	4.45599e-19	$X=4.0075 $Y=0.886
C987	net3#16	net16#10	5.27613e-19	$X=3.7365 $Y=0.8855
C988	net2#11	net2#2	4.17525e-19	$X=4.0235 $Y=-1.0395
C989	gnd!#19	XI15/net2#2	2.0383e-19	$X=2.375 $Y=-0.383
C990	net15#14	vdd!	5.83828e-19	$X=3.469 $Y=-1.261
C991	gnd!#8	XI9/net2#2	1.31733e-19	$X=2.087 $Y=0.236
C992	gnd!#18	XI9/net2#2	2.04464e-19	$X=2.3905 $Y=0.412
C993	net16#29	net13	4.33562e-19	$X=1.527 $Y=-0.3255
C994	net13#5	net16#4	4.44985e-19	$X=2.765 $Y=-0.8585
C995	net15#7	net16#11	1.71525e-19	$X=3.267 $Y=0.5305
C996	net15#6	net16#9	1.81223e-19	$X=2.867 $Y=1.0075
C997	net15#3	net16#9	1.82633e-19	$X=3.2 $Y=1.05
C998	net15#9	net16#10	2.60266e-19	$X=3.433 $Y=0.793
C999	net15	net16#8	3.17244e-19	$X=3.474 $Y=1.171
C1000	net16#5	net15#3	3.47824e-19	$X=2.959 $Y=0.0095
C1001	net15#11	net16#5	3.66276e-19	$X=3.129 $Y=-0.508
C1002	net16#24	net15#11	4.06194e-19	$X=3.2795 $Y=-0.5835
C1003	net15#4	net16#10	4.53987e-19	$X=3.245 $Y=0.6795
C1004	net15#14	net16#2	4.6731e-19	$X=3.266 $Y=-1.2875
C1005	net16#5	net15#4	4.86317e-19	$X=2.9935 $Y=0.002
C1006	net16#26	net15#6	4.98245e-19	$X=2.591 $Y=0.9805
C1007	net16	net15#2	6.81845e-19	$X=3.145 $Y=0.675
C1008	net15#2	net16#8	6.88587e-19	$X=3.459 $Y=1.048
C1009	net16#26	net15#2	7.05351e-19	$X=3.0485 $Y=0.973
C1010	net11#6	net16#7	2.60439e-19	$X=3.7965 $Y=1.201
C1011	net11#6	net16#11	2.86583e-19	$X=3.7485 $Y=0.5645
C1012	net11#4	net16#6	3.33639e-19	$X=3.891 $Y=1.3345
C1013	vdd!#16	XI9/net2	3.15257e-19	$X=1.668 $Y=0.5295
C1014	net15#13	net2#12	2.91213e-19	$X=3.837 $Y=-0.993
C1015	net15#13	net2#2	4.09045e-19	$X=4.113 $Y=-0.9445
C1016	net15#9	net2#5	4.57907e-19	$X=1.971 $Y=-0.295
C1017	net15#11	net2	4.87157e-19	$X=3.9655 $Y=-0.536
C1018	net15#13	net2#5	5.24615e-19	$X=2.0705 $Y=-0.6225
C1019	vdd!#16	XI13/net2	3.15257e-19	$X=4.2585 $Y=0.5295
C1020	net3#16	net15#2	1.77731e-19	$X=3.1415 $Y=0.948
C1021	net3#7	net15#5	3.52435e-19	$X=2.0135 $Y=1.0985
C1022	net15#8	net3#2	4.04357e-19	$X=2.4735 $Y=0.96
C1023	net3#14	net15#2	6.40487e-19	$X=2.929 $Y=0.9485
C1024	net15#9	net3#2	7.17549e-19	$X=2.3535 $Y=0.8945
C1025	XI18/net2#5	net16#3	2.17767e-19	$X=2.9995 $Y=-0.98
C1026	XI18/net2#2	net16#9	2.5851e-19	$X=3.52 $Y=0.4515
C1027	net11#3	net3#4	2.78385e-19	$X=2.641 $Y=0.5435
C1028	net11	net3#4	3.45666e-19	$X=2.494 $Y=0.6005
C1029	XI18/net2#4	net2#2	2.82502e-19	$X=3.9645 $Y=-0.918
C1030	net15#13	net15#11	4.58594e-19	$X=3.4275 $Y=-0.6325
C1031	net11#3	XI13/net2	1.86674e-19	$X=3.926 $Y=0.5235
C1032	CLK	gnd!	2.81314e-18	$X=0.5605 $Y=0.9755
C1033	D	gnd!	8.96588e-18	$X=1.5665 $Y=0.8995
C1034	Q	gnd!	6.05326e-18	$X=4.3105 $Y=-0.8465
C1035	vdd!	gnd!	4.85286e-18	$X=2.372 $Y=0.1505
C1036	net16	gnd!	1.75002e-18	$X=3.558 $Y=-0.21
C1037	net2#4	gnd!	4.95182e-19	$X=4.207 $Y=-1.325
C1038	net16#7	gnd!	1.72665e-19	$X=3.6705 $Y=1.3815
C1039	net16	gnd!	1.20596e-18	$X=3.558 $Y=-0.21
C1040	net15	gnd!	6.88096e-19	$X=3.01 $Y=1.345
C1041	net16#2	gnd!	6.63697e-19	$X=2.9735 $Y=-1.3165
C1042	net3	gnd!	3.99063e-18	$X=2.312 $Y=1.345
C1043	Q#4	gnd!	3.81854e-18	$X=2.312 $Y=-1.325
C1044	CLK#1	gnd!	1.14651e-17	$X=1.6695 $Y=1.3545
C1045	CLK#11	gnd!	1.585e-17	$X=1.6695 $Y=-1.334
C1046	CLK#6	gnd!	1.82533e-18	$X=1.08 $Y=1.298
C1047	CLK#12	gnd!	3.82419e-18	$X=1.0835 $Y=-1.3165
C1048	CLK#3	gnd!	1.376e-19	$X=0.421 $Y=1.36
C1049	XI13/net2	gnd!	6.98031e-18	$X=4.264 $Y=0.524
C1050	net2	gnd!	1.85865e-17	$X=4.207 $Y=-0.538
C1051	net16#11	gnd!	1.00752e-17	$X=3.6735 $Y=0.517
C1052	XI18/net2	gnd!	5.90075e-18	$X=3.565 $Y=-0.5045
C1053	net15#4	gnd!	9.52424e-18	$X=3.01 $Y=0.558
C1054	net16#5	gnd!	8.08841e-18	$X=2.9755 $Y=-0.497
C1055	net3#4	gnd!	1.65233e-17	$X=2.312 $Y=0.558
C1056	Q#1	gnd!	1.73129e-17	$X=2.312 $Y=-0.538
C1057	XI9/net2	gnd!	1.0142e-17	$X=1.668 $Y=0.524
C1058	XI15/net2	gnd!	6.32706e-18	$X=1.668 $Y=-0.5045
C1059	CLK#8	gnd!	1.02442e-17	$X=1.08 $Y=0.517
C1060	CLK#15	gnd!	1.71588e-17	$X=1.08 $Y=-0.497
C1061	CLK#9	gnd!	1.22683e-17	$X=0.417 $Y=0.558
C1062	XI13/net2#2	gnd!	2.71208e-17	$X=4.175 $Y=0.318
C1063	net2#3	gnd!	2.06087e-18	$X=4.08 $Y=-0.972
C1064	net16#9	gnd!	2.13966e-19	$X=3.541 $Y=1.0835
C1065	XI18/net2#2	gnd!	2.21732e-17	$X=3.48 $Y=-0.297
C1066	net15#3	gnd!	2.90344e-19	$X=2.921 $Y=1.015
C1067	net16#4	gnd!	1.04397e-18	$X=2.911 $Y=-0.885
C1068	net3#3	gnd!	2.68113e-18	$X=2.228 $Y=1.016
C1069	Q#3	gnd!	2.17055e-18	$X=2.2405 $Y=-0.9965
C1070	XI9/net2#2	gnd!	2.50387e-17	$X=1.593 $Y=0.318
C1071	XI15/net2#2	gnd!	2.59938e-17	$X=1.593 $Y=-0.297
C1072	CLK#14	gnd!	1.79343e-18	$X=1.0095 $Y=-0.8915
C1073	CLK#5	gnd!	3.54918e-19	$X=0.3415 $Y=1.018
C1074	net3#16	gnd!	4.37011e-18	$X=4.074 $Y=0.8765
C1075	net2#16	gnd!	9.52943e-19	$X=3.5305 $Y=-1.2615
C1076	net16#26	gnd!	1.09652e-18	$X=3.2825 $Y=1.0745
C1077	net16#24	gnd!	2.11679e-17	$X=2.4535 $Y=-0.7985
C1078	net3#14	gnd!	7.1762e-18	$X=2.316 $Y=0.8815
C1079	net2#14	gnd!	6.19289e-18	$X=1.745 $Y=-0.9815
C1080	net16#22	gnd!	1.10222e-18	$X=0.7 $Y=1.082
C1081	net3#12	gnd!	7.77855e-18	$X=4.3605 $Y=0.884
C1082	Q#7	gnd!	8.09242e-19	$X=4.2945 $Y=-1.041
C1083	net11#6	gnd!	1.17266e-17	$X=4.053 $Y=0.7665
C1084	net2#12	gnd!	1.45284e-19	$X=3.8725 $Y=-0.99
C1085	net15#13	gnd!	4.69564e-18	$X=3.2545 $Y=-0.997
C1086	net11	gnd!	1.09843e-17	$X=3.248 $Y=0.7665
C1087	net16#18	gnd!	3.46744e-18	$X=2.818 $Y=-0.848
C1088	net15#9	gnd!	2.02127e-17	$X=2.6495 $Y=0.4485
C1089	net13#5	gnd!	1.11008e-17	$X=2.319 $Y=-0.7585
C1090	Q#6	gnd!	6.16812e-18	$X=2.1155 $Y=-0.9865
C1091	net3#9	gnd!	3.08125e-18	$X=2.005 $Y=0.899
C1092	net2#6	gnd!	4.04258e-18	$X=1.772 $Y=-0.9345
C1093	net13#2	gnd!	8.48622e-18	$X=1.707 $Y=-0.7595
C1094	CLK#20	gnd!	1.94491e-17	$X=0.735 $Y=-0.872
C1095	net16#16	gnd!	1.81562e-19	$X=0.5855 $Y=1.055
C1096	CLK#17	gnd!	2.28683e-17	$X=0.1755 $Y=0.694
C1097	net3#11	gnd!	1.27153e-19	$X=4.3555 $Y=1.25
C1098	Q#9	gnd!	5.85249e-19	$X=4.296 $Y=-1.302
C1099	vdd!#1	gnd!	2.4398e-19	$X=4.101 $Y=-1.333
C1100	XI13/net2#3	gnd!	6.47199e-19	$X=3.7635 $Y=1.304
C1101	net2#11	gnd!	2.05224e-19	$X=3.6585 $Y=-1.2315
C1102	vdd!#32	gnd!	2.79064e-19	$X=3.57 $Y=1.3675
C1103	net15#14	gnd!	2.346e-19	$X=3.4655 $Y=-1.256
C1104	net11#4	gnd!	2.20733e-19	$X=3.103 $Y=1.273
C1105	XI18/net2#5	gnd!	5.132e-18	$X=3.0685 $Y=-1.2825
C1106	vdd!#13	gnd!	3.25152e-19	$X=2.8755 $Y=-1.3465
C1107	net15#5	gnd!	6.51131e-19	$X=2.409 $Y=1.3085
C1108	net13#6	gnd!	4.40701e-18	$X=2.409 $Y=-1.2535
C1109	vdd!#25	gnd!	8.60903e-19	$X=2.2155 $Y=1.354
C1110	vdd!#14	gnd!	2.18823e-19	$X=2.2155 $Y=-1.333
C1111	net3#10	gnd!	2.47993e-18	$X=1.7665 $Y=1.2685
C1112	net2#7	gnd!	2.55652e-18	$X=1.7665 $Y=-1.2485
C1113	D#2	gnd!	1.43606e-17	$X=1.573 $Y=1.249
C1114	net13#3	gnd!	6.07894e-18	$X=1.5735 $Y=-1.2125
C1115	XI9/net2#3	gnd!	1.35922e-18	$X=1.1835 $Y=1.304
C1116	XI15/net2#5	gnd!	2.13065e-18	$X=1.1835 $Y=-1.2825
C1117	vdd!#22	gnd!	4.20631e-19	$X=0.99 $Y=1.3675
C1118	vdd!#15	gnd!	1.21898e-19	$X=0.99 $Y=-1.3465
C1119	net16#13	gnd!	8.32902e-20	$X=0.522 $Y=1.319
C1120	vdd!#19	gnd!	5.22765e-20	$X=0.33 $Y=1.354
C1121	vdd!#16	gnd!	9.42336e-17	$X=2.158 $Y=1.294
C1122	vdd!#3	gnd!	1.07986e-16	$X=2.3445 $Y=-1.2395
C1123	net3#13	gnd!	1.06707e-17	$X=4.3555 $Y=0.5205
C1124	Q#10	gnd!	1.4239e-17	$X=4.3 $Y=-0.5335
C1125	net11#7	gnd!	1.25607e-18	$X=4.1625 $Y=0.502
C1126	XI13/net2#5	gnd!	2.45315e-18	$X=3.768 $Y=0.521
C1127	net2#13	gnd!	2.70641e-18	$X=3.6585 $Y=-0.5045
C1128	net15#11	gnd!	4.07281e-18	$X=3.4635 $Y=-0.525
C1129	net11#3	gnd!	9.17401e-19	$X=3.1065 $Y=0.5195
C1130	XI18/net2#3	gnd!	4.08097e-18	$X=3.071 $Y=-0.501
C1131	net15#7	gnd!	7.16425e-18	$X=2.409 $Y=0.555
C1132	net13#4	gnd!	5.27181e-18	$X=2.409 $Y=-0.5015
C1133	net3#8	gnd!	6.80506e-18	$X=1.7675 $Y=0.5405
C1134	net2#5	gnd!	3.02671e-18	$X=1.7675 $Y=-0.518
C1135	D#1	gnd!	4.48182e-18	$X=1.573 $Y=0.529
C1136	net13	gnd!	1.22457e-18	$X=1.5725 $Y=-0.4845
C1137	XI9/net2#5	gnd!	1.86567e-18	$X=1.1795 $Y=0.521
C1138	XI15/net2#3	gnd!	4.60623e-18	$X=1.1795 $Y=-0.501
C1139	net16#15	gnd!	3.93874e-18	$X=0.5185 $Y=0.555
C1140	net16#14	gnd!	2.37015e-18	$X=0.5205 $Y=0.972
C1141	XI9/net2#4	gnd!	8.60215e-18	$X=1.2725 $Y=0.874
C1142	XI15/net2#4	gnd!	1.38325e-17	$X=1.2725 $Y=-0.8525
C1143	net3#6	gnd!	4.18363e-20	$X=2.005 $Y=1.0185
C1144	net3#7	gnd!	4.13404e-18	$X=1.772 $Y=0.9605
C1145	net15#6	gnd!	1.87084e-18	$X=2.414 $Y=0.95
C1146	net15#8	gnd!	1.34464e-19	$X=2.6535 $Y=0.9625
C1147	XI18/net2#4	gnd!	1.45327e-17	$X=3.1585 $Y=-0.8525
C1148	net2#9	gnd!	3.7444e-18	$X=3.871 $Y=-0.8935
C1149	net2#10	gnd!	3.69203e-18	$X=3.664 $Y=-0.8765
C1150	XI13/net2#4	gnd!	7.11045e-18	$X=3.853 $Y=0.874
C1151	vdd!#5	gnd!	8.06148e-19	$X=2.87 $Y=-1.675
C1152	vdd!#7	gnd!	6.6949e-19	$X=1.993 $Y=-1.7435
C1153	vdd!#9	gnd!	2.19975e-19	$X=0.986 $Y=-1.675
C1154	vdd!#18	gnd!	3.03443e-19	$X=0.315 $Y=1.7015
C1155	vdd!#21	gnd!	3.47177e-20	$X=0.986 $Y=1.6965
C1156	vdd!#28	gnd!	2.82837e-19	$X=2.908 $Y=1.7015
C1157	CLK#2	gnd!	4.35366e-19	$X=1.0835 $Y=1.54
C1158	CLK#4	gnd!	4.60967e-18	$X=0.4165 $Y=0.954
C1159	CLK#7	gnd!	1.1198e-17	$X=1.048 $Y=0.9045
C1160	CLK#13	gnd!	1.65046e-17	$X=1.08 $Y=-0.8805
C1161	net3#2	gnd!	5.04603e-18	$X=2.312 $Y=0.954
C1162	Q#2	gnd!	5.47535e-18	$X=2.312 $Y=-0.933
C1163	net15#2	gnd!	3.49479e-18	$X=3.0105 $Y=0.954
C1164	net16#3	gnd!	7.84335e-18	$X=2.9755 $Y=-0.8805
C1165	net2#2	gnd!	5.94325e-18	$X=4.2075 $Y=-0.933
C1166	net16#8	gnd!	1.28158e-18	$X=3.6755 $Y=1.092
C1167	net16#10	gnd!	1.06008e-17	$X=3.6355 $Y=0.881
C1168	net16#29	gnd!	2.00286e-17	$X=1.196 $Y=1.058
*
*
.ENDS ph1p3_DFF
*
