*
*
*
*                       LINUX           Sun Nov  3 07:47:46 2024
*
*
*
*  PROGRAM  advgen
*
*  Name           : advgen - Quantus - (64-bit)
*  Version        : 22.1.1-p041
*  Build Date     : Mon Apr 17 07:36:05 PDT 2023
*
*  HSPICE LIBRARY
*
*  QRC_TECH_DIR /home/viterbi/01/ee577/CDS_GPDK45/gpdk045_v_5_0/qrc/typical 
*
*!LENGTH_UNITS METERS
*
*
*

*
.SUBCKT 8bit_CSA A0 A1 A2 A3 A4 A5 A6 A7 B0 B1 B2 B3 B4 B5 B6 B7 Cin Cout S0 S1
+ S2 S3 S4 S5 S6 S7 gnd! vdd!
*
*
*  caps2d version: 10
*
*
*       TRANSISTOR CARDS
*
*
MXI1/XI11/XI2/MNM0	XI1/XI11/net1#7	XI1/net2#3	gnd!#45
+ gnd!	g45n1svt	L=4.5e-08	W=1.2e-07
+ AD=1.68e-14	AS=1.68e-14	PD=5.2e-07	PS=5.2e-07
+ fw=1.2e-07 sa=1.4e-07 sb=1.4e-07 sca=9.72117 scb=0.00853087 scc=0.000206786
MXI1/XI11/MNM3	XI1/XI11/net21	XI1/XI11/net1#4	gnd!#44	gnd!
+ g45n1svt	L=4.5e-08	W=1.2e-07
+ AD=1.68e-14	AS=1.68e-14	PD=5.2e-07	PS=5.2e-07
+ fw=1.2e-07 sa=1.4e-07 sb=1.4e-07 sca=9.72117 scb=0.00853087 scc=0.000206786
MXI1/XI11/MNM4	XI1/XI11/net25#2	XI1/net2#2	gnd!#43	gnd!
+ g45n1svt	L=4.5e-08	W=1.2e-07
+ AD=1.68e-14	AS=1.68e-14	PD=5.2e-07	PS=5.2e-07
+ fw=1.2e-07 sa=1.4e-07 sb=1.4e-07 sca=9.72117 scb=0.00853087 scc=0.000206786
MXI1/XI11/MNM0	XI1/XI11/net6#8	XI1/net1#4	XI1/XI11/net21#3
+ gnd!	g45n1svt	L=4.5e-08	W=1.2e-07
+ AD=1.68e-14	AS=1.68e-14	PD=5.2e-07	PS=5.2e-07
+ fw=1.2e-07 sa=1.4e-07 sb=1.4e-07 sca=9.72117 scb=0.00853087 scc=0.000206786
MXI1/XI11/MNM1	XI1/XI11/net6#9	net14#14	XI1/XI11/net25	gnd!
+ g45n1svt	L=4.5e-08	W=1.2e-07
+ AD=1.68e-14	AS=1.68e-14	PD=5.2e-07	PS=5.2e-07
+ fw=1.2e-07 sa=1.4e-07 sb=1.4e-07 sca=9.72117 scb=0.00853087 scc=0.000206786
MXI1/XI11/MNM2	Cout#2	XI1/XI11/net6#4	gnd!#42	gnd!
+ g45n1svt	L=4.5e-08	W=1.2e-07
+ AD=1.68e-14	AS=1.68e-14	PD=5.2e-07	PS=5.2e-07
+ fw=1.2e-07 sa=1.4e-07 sb=1.4e-07 sca=9.72117 scb=0.00853087 scc=0.000206786
MXI1/XI5/XI5/MNM0	XI1/net2#9	XI1/XI5/net1#4	gnd!#46	gnd!
+ g45n1svt	L=4.5e-08	W=1.2e-07
+ AD=1.68e-14	AS=1.68e-14	PD=5.2e-07	PS=5.2e-07
+ fw=1.2e-07 sa=1.4e-07 sb=1.4e-07 sca=16.6908 scb=0.0179614 scc=0.00130074
MXI1/XI5/XI3/MNM0	XI1/XI5/net2#7	XI1/XI5/net3#4	gnd!#48	gnd!
+ g45n1svt	L=4.5e-08	W=1.2e-07
+ AD=1.68e-14	AS=1.68e-14	PD=5.2e-07	PS=5.2e-07
+ fw=1.2e-07 sa=1.4e-07 sb=1.4e-07 sca=16.6908 scb=0.0179614 scc=0.00130074
MXI1/XI5/XI4/MNM0	XI1/XI5/net5#7	XI1/XI5/net6#4	gnd!#50	gnd!
+ g45n1svt	L=4.5e-08	W=1.2e-07
+ AD=1.68e-14	AS=1.68e-14	PD=5.2e-07	PS=5.2e-07
+ fw=1.2e-07 sa=1.4e-07 sb=1.4e-07 sca=16.6908 scb=0.0179614 scc=0.00130074
MXI1/XI5/XI6/MNM1	XI1/XI5/XI6/net9	XI1/XI5/net2#4	gnd!#47
+ gnd!	g45n1svt	L=4.5e-08	W=1.2e-07
+ AD=7.2e-15	AS=1.68e-14	PD=3.6e-07	PS=5.2e-07
+ fw=1.2e-07 sa=1.4e-07 sb=2.45e-07 sca=7.31073 scb=0.00435535 scc=4.26584e-05
MXI1/XI5/XI6/MNM0	XI1/XI5/net1#5	XI1/XI5/net5#3	XI1/XI5/XI6/net9
+ gnd!	g45n1svt	L=4.5e-08	W=1.2e-07
+ AD=1.68e-14	AS=7.2e-15	PD=5.2e-07	PS=3.6e-07
+ fw=1.2e-07 sa=2.45e-07 sb=1.4e-07 sca=7.31073 scb=0.00435535 scc=4.26584e-05
MXI1/XI5/XI0/MNM0	gnd!#49	XI1/net6#4	XI1/XI5/XI0/net9
+ gnd!	g45n1svt	L=4.5e-08	W=1.2e-07
+ AD=1.68e-14	AS=7.2e-15	PD=5.2e-07	PS=3.6e-07
+ fw=1.2e-07 sa=1.4e-07 sb=2.45e-07 sca=7.31073 scb=0.00435535 scc=4.26584e-05
MXI1/XI5/XI0/MNM1	XI1/XI5/XI0/net9	XI1/net4#3	XI1/XI5/net3#5
+ gnd!	g45n1svt	L=4.5e-08	W=1.2e-07
+ AD=7.2e-15	AS=1.68e-14	PD=3.6e-07	PS=5.2e-07
+ fw=1.2e-07 sa=2.45e-07 sb=1.4e-07 sca=7.31073 scb=0.00435535 scc=4.26584e-05
MXI1/XI5/XI1/MNM0	gnd!#51	XI1/net8#4	XI1/XI5/XI1/net9
+ gnd!	g45n1svt	L=4.5e-08	W=1.2e-07
+ AD=1.68e-14	AS=7.2e-15	PD=5.2e-07	PS=3.6e-07
+ fw=1.2e-07 sa=1.4e-07 sb=2.45e-07 sca=7.31073 scb=0.00435535 scc=4.26584e-05
MXI1/XI5/XI1/MNM1	XI1/XI5/XI1/net9	XI1/net7#3	XI1/XI5/net6#5
+ gnd!	g45n1svt	L=4.5e-08	W=1.2e-07
+ AD=7.2e-15	AS=1.68e-14	PD=3.6e-07	PS=5.2e-07
+ fw=1.2e-07 sa=2.45e-07 sb=1.4e-07 sca=7.31073 scb=0.00435535 scc=4.26584e-05
MXI1/XI0/XI3/XI9/XI13/MNM0	XI1/XI0/XI3/XI9/net2#7	XI1/XI0/net1#7	gnd!#59
+ gnd!	g45n1svt	L=4.5e-08	W=1.2e-07
+ AD=1.68e-14	AS=1.68e-14	PD=5.2e-07	PS=5.2e-07
+ fw=1.2e-07 sa=1.4e-07 sb=1.4e-07 sca=9.20059 scb=0.00764836 scc=0.000159521
MXI1/XI0/XI3/XI9/XI12/MNM0	XI1/XI0/XI3/XI9/net6#7	XI1/XI0/XI3/net2#12
+ gnd!#58	gnd!	g45n1svt	L=4.5e-08	W=1.2e-07
+ AD=1.68e-14	AS=1.68e-14	PD=5.2e-07	PS=5.2e-07
+ fw=1.2e-07 sa=1.4e-07 sb=1.4e-07 sca=9.20059 scb=0.00764836 scc=0.000159521
MXI1/XI0/XI3/XI9/MNM1	gnd!#57	XI1/XI0/XI3/net2#10
+ XI1/XI0/XI3/XI9/net9	gnd!	g45n1svt	L=4.5e-08	W=1.2e-07
+ AD=1.68e-14	AS=1.68e-14	PD=5.2e-07	PS=5.2e-07
+ fw=1.2e-07 sa=1.4e-07 sb=1.4e-07 sca=9.20059 scb=0.00764836 scc=0.000159521
MXI1/XI0/XI3/XI9/MNM2	XI1/XI0/XI3/XI9/net1#2	XI1/XI0/XI3/XI9/net2#4	S7#4
+ gnd!	g45n1svt	L=4.5e-08	W=1.2e-07
+ AD=1.68e-14	AS=1.68e-14	PD=5.2e-07	PS=5.2e-07
+ fw=1.2e-07 sa=1.4e-07 sb=1.4e-07 sca=9.20059 scb=0.00764836 scc=0.000159521
MXI1/XI0/XI3/XI9/MNM0	gnd!#56	XI1/XI0/XI3/XI9/net6#4
+ XI1/XI0/XI3/XI9/net1	gnd!	g45n1svt	L=4.5e-08	W=1.2e-07
+ AD=1.68e-14	AS=1.68e-14	PD=5.2e-07	PS=5.2e-07
+ fw=1.2e-07 sa=1.4e-07 sb=1.4e-07 sca=9.20059 scb=0.00764836 scc=0.000159521
MXI1/XI0/XI3/XI9/MNM3	XI1/XI0/XI3/XI9/net9#3	XI1/XI0/net1#6	S7#1	gnd!
+ g45n1svt	L=4.5e-08	W=1.2e-07
+ AD=1.68e-14	AS=1.68e-14	PD=5.2e-07	PS=5.2e-07
+ fw=1.2e-07 sa=1.4e-07 sb=1.4e-07 sca=9.20059 scb=0.00764836 scc=0.000159521
MXI1/XI0/XI3/XI0/XI12/MNM0	XI1/XI0/XI3/XI0/net6#7	A7#3	gnd!#66
+ gnd!	g45n1svt	L=4.5e-08	W=1.2e-07
+ AD=1.68e-14	AS=1.68e-14	PD=5.2e-07	PS=5.2e-07
+ fw=1.2e-07 sa=1.4e-07 sb=1.4e-07 sca=9.20059 scb=0.00764836 scc=0.000159521
MXI1/XI0/XI3/XI0/XI13/MNM0	XI1/XI0/XI3/XI0/net2#7	B7#8	gnd!#65
+ gnd!	g45n1svt	L=4.5e-08	W=1.2e-07
+ AD=1.68e-14	AS=1.68e-14	PD=5.2e-07	PS=5.2e-07
+ fw=1.2e-07 sa=1.4e-07 sb=1.4e-07 sca=9.20059 scb=0.00764836 scc=0.000159521
MXI1/XI0/XI3/XI0/MNM3	XI1/XI0/XI3/XI0/net9	B7#6	gnd!#64	gnd!
+ g45n1svt	L=4.5e-08	W=1.2e-07
+ AD=1.68e-14	AS=1.68e-14	PD=5.2e-07	PS=5.2e-07
+ fw=1.2e-07 sa=1.4e-07 sb=1.4e-07 sca=9.20059 scb=0.00764836 scc=0.000159521
MXI1/XI0/XI3/XI0/MNM0	XI1/XI0/XI3/net2#17	XI1/XI0/XI3/XI0/net6#4
+ XI1/XI0/XI3/XI0/net1#2	gnd!	g45n1svt	L=4.5e-08
+ W=1.2e-07
+ AD=1.68e-14	AS=1.68e-14	PD=5.2e-07	PS=5.2e-07
+ fw=1.2e-07 sa=1.4e-07 sb=1.4e-07 sca=9.20059 scb=0.00764836 scc=0.000159521
MXI1/XI0/XI3/XI0/MNM2	XI1/XI0/XI3/XI0/net1	XI1/XI0/XI3/XI0/net2#4	gnd!#63
+ gnd!	g45n1svt	L=4.5e-08	W=1.2e-07
+ AD=1.68e-14	AS=1.68e-14	PD=5.2e-07	PS=5.2e-07
+ fw=1.2e-07 sa=1.4e-07 sb=1.4e-07 sca=9.20059 scb=0.00764836 scc=0.000159521
MXI1/XI0/XI3/XI0/MNM1	XI1/XI0/XI3/net2#13	A7#2	XI1/XI0/XI3/XI0/net9#3
+ gnd!	g45n1svt	L=4.5e-08	W=1.2e-07
+ AD=1.68e-14	AS=1.68e-14	PD=5.2e-07	PS=5.2e-07
+ fw=1.2e-07 sa=1.4e-07 sb=1.4e-07 sca=9.20059 scb=0.00764836 scc=0.000159521
MXI1/XI0/XI3/XI2/MNM0	gnd!#62	XI1/XI0/XI3/net2#4
+ XI1/XI0/XI3/XI2/net9	gnd!	g45n1svt	L=4.5e-08	W=1.2e-07
+ AD=1.68e-14	AS=7.2e-15	PD=5.2e-07	PS=3.6e-07
+ fw=1.2e-07 sa=1.4e-07 sb=2.45e-07 sca=7.31073 scb=0.00435535 scc=4.26584e-05
MXI1/XI0/XI3/XI2/MNM1	XI1/XI0/XI3/XI2/net9	XI1/XI0/net1#3
+ XI1/XI0/XI3/net6#8	gnd!	g45n1svt	L=4.5e-08	W=1.2e-07
+ AD=7.2e-15	AS=1.68e-14	PD=3.6e-07	PS=5.2e-07
+ fw=1.2e-07 sa=2.45e-07 sb=1.4e-07 sca=7.31073 scb=0.00435535 scc=4.26584e-05
MXI1/XI0/XI3/XI3/MNM0	gnd!#60	XI1/XI0/XI3/net1#4
+ XI1/XI0/XI3/XI3/net9	gnd!	g45n1svt	L=4.5e-08	W=1.2e-07
+ AD=1.68e-14	AS=7.2e-15	PD=5.2e-07	PS=3.6e-07
+ fw=1.2e-07 sa=1.4e-07 sb=2.45e-07 sca=7.31073 scb=0.00435535 scc=4.26584e-05
MXI1/XI0/XI3/XI3/MNM1	XI1/XI0/XI3/XI3/net9	XI1/XI0/XI3/net6#3
+ XI1/net1#8	gnd!	g45n1svt	L=4.5e-08	W=1.2e-07
+ AD=7.2e-15	AS=1.68e-14	PD=3.6e-07	PS=5.2e-07
+ fw=1.2e-07 sa=2.45e-07 sb=1.4e-07 sca=7.31073 scb=0.00435535 scc=4.26584e-05
MXI1/XI0/XI3/XI4/MNM1	XI1/XI0/XI3/XI4/net9	B7#12	gnd!#61	gnd!
+ g45n1svt	L=4.5e-08	W=1.2e-07
+ AD=7.2e-15	AS=1.68e-14	PD=3.6e-07	PS=5.2e-07
+ fw=1.2e-07 sa=1.4e-07 sb=2.45e-07 sca=7.31073 scb=0.00435535 scc=4.26584e-05
MXI1/XI0/XI3/XI4/MNM0	XI1/XI0/XI3/net1#8	A7#9	XI1/XI0/XI3/XI4/net9
+ gnd!	g45n1svt	L=4.5e-08	W=1.2e-07
+ AD=1.68e-14	AS=7.2e-15	PD=5.2e-07	PS=3.6e-07
+ fw=1.2e-07 sa=2.45e-07 sb=1.4e-07 sca=7.31073 scb=0.00435535 scc=4.26584e-05
MXI1/XI0/XI2/XI9/XI13/MNM0	XI1/XI0/XI2/XI9/net2#7	XI1/XI0/net10#7
+ gnd!#217	gnd!	g45n1svt	L=4.5e-08	W=1.2e-07
+ AD=1.68e-14	AS=1.68e-14	PD=5.2e-07	PS=5.2e-07
+ fw=1.2e-07 sa=1.4e-07 sb=1.4e-07 sca=9.20059 scb=0.00764836 scc=0.000159521
MXI1/XI0/XI2/XI9/XI12/MNM0	XI1/XI0/XI2/XI9/net6#7	XI1/XI0/XI2/net2#12
+ gnd!#216	gnd!	g45n1svt	L=4.5e-08	W=1.2e-07
+ AD=1.68e-14	AS=1.68e-14	PD=5.2e-07	PS=5.2e-07
+ fw=1.2e-07 sa=1.4e-07 sb=1.4e-07 sca=9.20059 scb=0.00764836 scc=0.000159521
MXI1/XI0/XI2/XI9/MNM1	gnd!#215	XI1/XI0/XI2/net2#10
+ XI1/XI0/XI2/XI9/net9	gnd!	g45n1svt	L=4.5e-08	W=1.2e-07
+ AD=1.68e-14	AS=1.68e-14	PD=5.2e-07	PS=5.2e-07
+ fw=1.2e-07 sa=1.4e-07 sb=1.4e-07 sca=9.20059 scb=0.00764836 scc=0.000159521
MXI1/XI0/XI2/XI9/MNM2	XI1/XI0/XI2/XI9/net1#2	XI1/XI0/XI2/XI9/net2#4	S6#4
+ gnd!	g45n1svt	L=4.5e-08	W=1.2e-07
+ AD=1.68e-14	AS=1.68e-14	PD=5.2e-07	PS=5.2e-07
+ fw=1.2e-07 sa=1.4e-07 sb=1.4e-07 sca=9.20059 scb=0.00764836 scc=0.000159521
MXI1/XI0/XI2/XI9/MNM0	gnd!#214	XI1/XI0/XI2/XI9/net6#4
+ XI1/XI0/XI2/XI9/net1	gnd!	g45n1svt	L=4.5e-08	W=1.2e-07
+ AD=1.68e-14	AS=1.68e-14	PD=5.2e-07	PS=5.2e-07
+ fw=1.2e-07 sa=1.4e-07 sb=1.4e-07 sca=9.20059 scb=0.00764836 scc=0.000159521
MXI1/XI0/XI2/XI9/MNM3	XI1/XI0/XI2/XI9/net9#3	XI1/XI0/net10#6	S6#1
+ gnd!	g45n1svt	L=4.5e-08	W=1.2e-07
+ AD=1.68e-14	AS=1.68e-14	PD=5.2e-07	PS=5.2e-07
+ fw=1.2e-07 sa=1.4e-07 sb=1.4e-07 sca=9.20059 scb=0.00764836 scc=0.000159521
MXI1/XI0/XI2/XI0/XI12/MNM0	XI1/XI0/XI2/XI0/net6#7	A6#3	gnd!#224
+ gnd!	g45n1svt	L=4.5e-08	W=1.2e-07
+ AD=1.68e-14	AS=1.68e-14	PD=5.2e-07	PS=5.2e-07
+ fw=1.2e-07 sa=1.4e-07 sb=1.4e-07 sca=9.20059 scb=0.00764836 scc=0.000159521
MXI1/XI0/XI2/XI0/XI13/MNM0	XI1/XI0/XI2/XI0/net2#7	B6#8	gnd!#223
+ gnd!	g45n1svt	L=4.5e-08	W=1.2e-07
+ AD=1.68e-14	AS=1.68e-14	PD=5.2e-07	PS=5.2e-07
+ fw=1.2e-07 sa=1.4e-07 sb=1.4e-07 sca=9.20059 scb=0.00764836 scc=0.000159521
MXI1/XI0/XI2/XI0/MNM3	XI1/XI0/XI2/XI0/net9	B6#6	gnd!#222	gnd!
+ g45n1svt	L=4.5e-08	W=1.2e-07
+ AD=1.68e-14	AS=1.68e-14	PD=5.2e-07	PS=5.2e-07
+ fw=1.2e-07 sa=1.4e-07 sb=1.4e-07 sca=9.20059 scb=0.00764836 scc=0.000159521
MXI1/XI0/XI2/XI0/MNM0	XI1/XI0/XI2/net2#17	XI1/XI0/XI2/XI0/net6#4
+ XI1/XI0/XI2/XI0/net1#2	gnd!	g45n1svt	L=4.5e-08
+ W=1.2e-07
+ AD=1.68e-14	AS=1.68e-14	PD=5.2e-07	PS=5.2e-07
+ fw=1.2e-07 sa=1.4e-07 sb=1.4e-07 sca=9.20059 scb=0.00764836 scc=0.000159521
MXI1/XI0/XI2/XI0/MNM2	XI1/XI0/XI2/XI0/net1	XI1/XI0/XI2/XI0/net2#4
+ gnd!#221	gnd!	g45n1svt	L=4.5e-08	W=1.2e-07
+ AD=1.68e-14	AS=1.68e-14	PD=5.2e-07	PS=5.2e-07
+ fw=1.2e-07 sa=1.4e-07 sb=1.4e-07 sca=9.20059 scb=0.00764836 scc=0.000159521
MXI1/XI0/XI2/XI0/MNM1	XI1/XI0/XI2/net2#13	A6#2	XI1/XI0/XI2/XI0/net9#3
+ gnd!	g45n1svt	L=4.5e-08	W=1.2e-07
+ AD=1.68e-14	AS=1.68e-14	PD=5.2e-07	PS=5.2e-07
+ fw=1.2e-07 sa=1.4e-07 sb=1.4e-07 sca=9.20059 scb=0.00764836 scc=0.000159521
MXI1/XI0/XI2/XI2/MNM0	gnd!#220	XI1/XI0/XI2/net2#4
+ XI1/XI0/XI2/XI2/net9	gnd!	g45n1svt	L=4.5e-08	W=1.2e-07
+ AD=1.68e-14	AS=7.2e-15	PD=5.2e-07	PS=3.6e-07
+ fw=1.2e-07 sa=1.4e-07 sb=2.45e-07 sca=7.31073 scb=0.00435535 scc=4.26584e-05
MXI1/XI0/XI2/XI2/MNM1	XI1/XI0/XI2/XI2/net9	XI1/XI0/net10#3
+ XI1/XI0/XI2/net6#8	gnd!	g45n1svt	L=4.5e-08	W=1.2e-07
+ AD=7.2e-15	AS=1.68e-14	PD=3.6e-07	PS=5.2e-07
+ fw=1.2e-07 sa=2.45e-07 sb=1.4e-07 sca=7.31073 scb=0.00435535 scc=4.26584e-05
MXI1/XI0/XI2/XI3/MNM0	gnd!#218	XI1/XI0/XI2/net1#4
+ XI1/XI0/XI2/XI3/net9	gnd!	g45n1svt	L=4.5e-08	W=1.2e-07
+ AD=1.68e-14	AS=7.2e-15	PD=5.2e-07	PS=3.6e-07
+ fw=1.2e-07 sa=1.4e-07 sb=2.45e-07 sca=7.31073 scb=0.00435535 scc=4.26584e-05
MXI1/XI0/XI2/XI3/MNM1	XI1/XI0/XI2/XI3/net9	XI1/XI0/XI2/net6#3
+ XI1/XI0/net1#14	gnd!	g45n1svt	L=4.5e-08	W=1.2e-07
+ AD=7.2e-15	AS=1.68e-14	PD=3.6e-07	PS=5.2e-07
+ fw=1.2e-07 sa=2.45e-07 sb=1.4e-07 sca=7.31073 scb=0.00435535 scc=4.26584e-05
MXI1/XI0/XI2/XI4/MNM1	XI1/XI0/XI2/XI4/net9	B6#12	gnd!#219	gnd!
+ g45n1svt	L=4.5e-08	W=1.2e-07
+ AD=7.2e-15	AS=1.68e-14	PD=3.6e-07	PS=5.2e-07
+ fw=1.2e-07 sa=1.4e-07 sb=2.45e-07 sca=7.31073 scb=0.00435535 scc=4.26584e-05
MXI1/XI0/XI2/XI4/MNM0	XI1/XI0/XI2/net1#8	A6#9	XI1/XI0/XI2/XI4/net9
+ gnd!	g45n1svt	L=4.5e-08	W=1.2e-07
+ AD=1.68e-14	AS=7.2e-15	PD=5.2e-07	PS=3.6e-07
+ fw=1.2e-07 sa=2.45e-07 sb=1.4e-07 sca=7.31073 scb=0.00435535 scc=4.26584e-05
MXI1/XI0/XI1/XI9/XI13/MNM0	XI1/XI0/XI1/XI9/net2#7	XI1/XI0/net5#7
+ gnd!#232	gnd!	g45n1svt	L=4.5e-08	W=1.2e-07
+ AD=1.68e-14	AS=1.68e-14	PD=5.2e-07	PS=5.2e-07
+ fw=1.2e-07 sa=1.4e-07 sb=1.4e-07 sca=9.20059 scb=0.00764836 scc=0.000159521
MXI1/XI0/XI1/XI9/XI12/MNM0	XI1/XI0/XI1/XI9/net6#7	XI1/XI0/XI1/net2#12
+ gnd!#231	gnd!	g45n1svt	L=4.5e-08	W=1.2e-07
+ AD=1.68e-14	AS=1.68e-14	PD=5.2e-07	PS=5.2e-07
+ fw=1.2e-07 sa=1.4e-07 sb=1.4e-07 sca=9.20059 scb=0.00764836 scc=0.000159521
MXI1/XI0/XI1/XI9/MNM1	gnd!#230	XI1/XI0/XI1/net2#10
+ XI1/XI0/XI1/XI9/net9	gnd!	g45n1svt	L=4.5e-08	W=1.2e-07
+ AD=1.68e-14	AS=1.68e-14	PD=5.2e-07	PS=5.2e-07
+ fw=1.2e-07 sa=1.4e-07 sb=1.4e-07 sca=9.20059 scb=0.00764836 scc=0.000159521
MXI1/XI0/XI1/XI9/MNM2	XI1/XI0/XI1/XI9/net1#2	XI1/XI0/XI1/XI9/net2#4	S5#4
+ gnd!	g45n1svt	L=4.5e-08	W=1.2e-07
+ AD=1.68e-14	AS=1.68e-14	PD=5.2e-07	PS=5.2e-07
+ fw=1.2e-07 sa=1.4e-07 sb=1.4e-07 sca=9.20059 scb=0.00764836 scc=0.000159521
MXI1/XI0/XI1/XI9/MNM0	gnd!#229	XI1/XI0/XI1/XI9/net6#4
+ XI1/XI0/XI1/XI9/net1	gnd!	g45n1svt	L=4.5e-08	W=1.2e-07
+ AD=1.68e-14	AS=1.68e-14	PD=5.2e-07	PS=5.2e-07
+ fw=1.2e-07 sa=1.4e-07 sb=1.4e-07 sca=9.20059 scb=0.00764836 scc=0.000159521
MXI1/XI0/XI1/XI9/MNM3	XI1/XI0/XI1/XI9/net9#3	XI1/XI0/net5#6	S5#1	gnd!
+ g45n1svt	L=4.5e-08	W=1.2e-07
+ AD=1.68e-14	AS=1.68e-14	PD=5.2e-07	PS=5.2e-07
+ fw=1.2e-07 sa=1.4e-07 sb=1.4e-07 sca=9.20059 scb=0.00764836 scc=0.000159521
MXI1/XI0/XI1/XI0/XI12/MNM0	XI1/XI0/XI1/XI0/net6#7	A5#3	gnd!#239
+ gnd!	g45n1svt	L=4.5e-08	W=1.2e-07
+ AD=1.68e-14	AS=1.68e-14	PD=5.2e-07	PS=5.2e-07
+ fw=1.2e-07 sa=1.4e-07 sb=1.4e-07 sca=9.20059 scb=0.00764836 scc=0.000159521
MXI1/XI0/XI1/XI0/XI13/MNM0	XI1/XI0/XI1/XI0/net2#7	B5#8	gnd!#238
+ gnd!	g45n1svt	L=4.5e-08	W=1.2e-07
+ AD=1.68e-14	AS=1.68e-14	PD=5.2e-07	PS=5.2e-07
+ fw=1.2e-07 sa=1.4e-07 sb=1.4e-07 sca=9.20059 scb=0.00764836 scc=0.000159521
MXI1/XI0/XI1/XI0/MNM3	XI1/XI0/XI1/XI0/net9	B5#6	gnd!#237	gnd!
+ g45n1svt	L=4.5e-08	W=1.2e-07
+ AD=1.68e-14	AS=1.68e-14	PD=5.2e-07	PS=5.2e-07
+ fw=1.2e-07 sa=1.4e-07 sb=1.4e-07 sca=9.20059 scb=0.00764836 scc=0.000159521
MXI1/XI0/XI1/XI0/MNM0	XI1/XI0/XI1/net2#17	XI1/XI0/XI1/XI0/net6#4
+ XI1/XI0/XI1/XI0/net1#2	gnd!	g45n1svt	L=4.5e-08
+ W=1.2e-07
+ AD=1.68e-14	AS=1.68e-14	PD=5.2e-07	PS=5.2e-07
+ fw=1.2e-07 sa=1.4e-07 sb=1.4e-07 sca=9.20059 scb=0.00764836 scc=0.000159521
MXI1/XI0/XI1/XI0/MNM2	XI1/XI0/XI1/XI0/net1	XI1/XI0/XI1/XI0/net2#4
+ gnd!#236	gnd!	g45n1svt	L=4.5e-08	W=1.2e-07
+ AD=1.68e-14	AS=1.68e-14	PD=5.2e-07	PS=5.2e-07
+ fw=1.2e-07 sa=1.4e-07 sb=1.4e-07 sca=9.20059 scb=0.00764836 scc=0.000159521
MXI1/XI0/XI1/XI0/MNM1	XI1/XI0/XI1/net2#13	A5#2	XI1/XI0/XI1/XI0/net9#3
+ gnd!	g45n1svt	L=4.5e-08	W=1.2e-07
+ AD=1.68e-14	AS=1.68e-14	PD=5.2e-07	PS=5.2e-07
+ fw=1.2e-07 sa=1.4e-07 sb=1.4e-07 sca=9.20059 scb=0.00764836 scc=0.000159521
MXI1/XI0/XI1/XI2/MNM0	gnd!#235	XI1/XI0/XI1/net2#4
+ XI1/XI0/XI1/XI2/net9	gnd!	g45n1svt	L=4.5e-08	W=1.2e-07
+ AD=1.68e-14	AS=7.2e-15	PD=5.2e-07	PS=3.6e-07
+ fw=1.2e-07 sa=1.4e-07 sb=2.45e-07 sca=7.31073 scb=0.00435535 scc=4.26584e-05
MXI1/XI0/XI1/XI2/MNM1	XI1/XI0/XI1/XI2/net9	XI1/XI0/net5#3
+ XI1/XI0/XI1/net6#8	gnd!	g45n1svt	L=4.5e-08	W=1.2e-07
+ AD=7.2e-15	AS=1.68e-14	PD=3.6e-07	PS=5.2e-07
+ fw=1.2e-07 sa=2.45e-07 sb=1.4e-07 sca=7.31073 scb=0.00435535 scc=4.26584e-05
MXI1/XI0/XI1/XI3/MNM0	gnd!#233	XI1/XI0/XI1/net1#4
+ XI1/XI0/XI1/XI3/net9	gnd!	g45n1svt	L=4.5e-08	W=1.2e-07
+ AD=1.68e-14	AS=7.2e-15	PD=5.2e-07	PS=3.6e-07
+ fw=1.2e-07 sa=1.4e-07 sb=2.45e-07 sca=7.31073 scb=0.00435535 scc=4.26584e-05
MXI1/XI0/XI1/XI3/MNM1	XI1/XI0/XI1/XI3/net9	XI1/XI0/XI1/net6#3
+ XI1/XI0/net10#14	gnd!	g45n1svt	L=4.5e-08	W=1.2e-07
+ AD=7.2e-15	AS=1.68e-14	PD=3.6e-07	PS=5.2e-07
+ fw=1.2e-07 sa=2.45e-07 sb=1.4e-07 sca=7.31073 scb=0.00435535 scc=4.26584e-05
MXI1/XI0/XI1/XI4/MNM1	XI1/XI0/XI1/XI4/net9	B5#12	gnd!#234	gnd!
+ g45n1svt	L=4.5e-08	W=1.2e-07
+ AD=7.2e-15	AS=1.68e-14	PD=3.6e-07	PS=5.2e-07
+ fw=1.2e-07 sa=1.4e-07 sb=2.45e-07 sca=7.31073 scb=0.00435535 scc=4.26584e-05
MXI1/XI0/XI1/XI4/MNM0	XI1/XI0/XI1/net1#8	A5#9	XI1/XI0/XI1/XI4/net9
+ gnd!	g45n1svt	L=4.5e-08	W=1.2e-07
+ AD=1.68e-14	AS=7.2e-15	PD=5.2e-07	PS=3.6e-07
+ fw=1.2e-07 sa=2.45e-07 sb=1.4e-07 sca=7.31073 scb=0.00435535 scc=4.26584e-05
MXI1/XI0/XI0/XI9/XI13/MNM0	XI1/XI0/XI0/XI9/net2#7	net14#7
+ gnd!#247	gnd!	g45n1svt	L=4.5e-08	W=1.2e-07
+ AD=1.68e-14	AS=1.68e-14	PD=5.2e-07	PS=5.2e-07
+ fw=1.2e-07 sa=1.4e-07 sb=1.4e-07 sca=9.20059 scb=0.00764836 scc=0.000159521
MXI1/XI0/XI0/XI9/XI12/MNM0	XI1/XI0/XI0/XI9/net6#7	XI1/XI0/XI0/net2#12
+ gnd!#246	gnd!	g45n1svt	L=4.5e-08	W=1.2e-07
+ AD=1.68e-14	AS=1.68e-14	PD=5.2e-07	PS=5.2e-07
+ fw=1.2e-07 sa=1.4e-07 sb=1.4e-07 sca=9.20059 scb=0.00764836 scc=0.000159521
MXI1/XI0/XI0/XI9/MNM1	gnd!#245	XI1/XI0/XI0/net2#10
+ XI1/XI0/XI0/XI9/net9	gnd!	g45n1svt	L=4.5e-08	W=1.2e-07
+ AD=1.68e-14	AS=1.68e-14	PD=5.2e-07	PS=5.2e-07
+ fw=1.2e-07 sa=1.4e-07 sb=1.4e-07 sca=9.20059 scb=0.00764836 scc=0.000159521
MXI1/XI0/XI0/XI9/MNM2	XI1/XI0/XI0/XI9/net1#2	XI1/XI0/XI0/XI9/net2#4	S4#4
+ gnd!	g45n1svt	L=4.5e-08	W=1.2e-07
+ AD=1.68e-14	AS=1.68e-14	PD=5.2e-07	PS=5.2e-07
+ fw=1.2e-07 sa=1.4e-07 sb=1.4e-07 sca=9.20059 scb=0.00764836 scc=0.000159521
MXI1/XI0/XI0/XI9/MNM0	gnd!#244	XI1/XI0/XI0/XI9/net6#4
+ XI1/XI0/XI0/XI9/net1	gnd!	g45n1svt	L=4.5e-08	W=1.2e-07
+ AD=1.68e-14	AS=1.68e-14	PD=5.2e-07	PS=5.2e-07
+ fw=1.2e-07 sa=1.4e-07 sb=1.4e-07 sca=9.20059 scb=0.00764836 scc=0.000159521
MXI1/XI0/XI0/XI9/MNM3	XI1/XI0/XI0/XI9/net9#3	net14#6	S4#1	gnd!
+ g45n1svt	L=4.5e-08	W=1.2e-07
+ AD=1.68e-14	AS=1.68e-14	PD=5.2e-07	PS=5.2e-07
+ fw=1.2e-07 sa=1.4e-07 sb=1.4e-07 sca=9.20059 scb=0.00764836 scc=0.000159521
MXI1/XI0/XI0/XI0/XI12/MNM0	XI1/XI0/XI0/XI0/net6#7	A4#3	gnd!#254
+ gnd!	g45n1svt	L=4.5e-08	W=1.2e-07
+ AD=1.68e-14	AS=1.68e-14	PD=5.2e-07	PS=5.2e-07
+ fw=1.2e-07 sa=1.4e-07 sb=1.4e-07 sca=9.20059 scb=0.00764836 scc=0.000159521
MXI1/XI0/XI0/XI0/XI13/MNM0	XI1/XI0/XI0/XI0/net2#7	B4#8	gnd!#253
+ gnd!	g45n1svt	L=4.5e-08	W=1.2e-07
+ AD=1.68e-14	AS=1.68e-14	PD=5.2e-07	PS=5.2e-07
+ fw=1.2e-07 sa=1.4e-07 sb=1.4e-07 sca=9.20059 scb=0.00764836 scc=0.000159521
MXI1/XI0/XI0/XI0/MNM3	XI1/XI0/XI0/XI0/net9	B4#6	gnd!#252	gnd!
+ g45n1svt	L=4.5e-08	W=1.2e-07
+ AD=1.68e-14	AS=1.68e-14	PD=5.2e-07	PS=5.2e-07
+ fw=1.2e-07 sa=1.4e-07 sb=1.4e-07 sca=9.20059 scb=0.00764836 scc=0.000159521
MXI1/XI0/XI0/XI0/MNM0	XI1/XI0/XI0/net2#17	XI1/XI0/XI0/XI0/net6#4
+ XI1/XI0/XI0/XI0/net1#2	gnd!	g45n1svt	L=4.5e-08
+ W=1.2e-07
+ AD=1.68e-14	AS=1.68e-14	PD=5.2e-07	PS=5.2e-07
+ fw=1.2e-07 sa=1.4e-07 sb=1.4e-07 sca=9.20059 scb=0.00764836 scc=0.000159521
MXI1/XI0/XI0/XI0/MNM2	XI1/XI0/XI0/XI0/net1	XI1/XI0/XI0/XI0/net2#4
+ gnd!#251	gnd!	g45n1svt	L=4.5e-08	W=1.2e-07
+ AD=1.68e-14	AS=1.68e-14	PD=5.2e-07	PS=5.2e-07
+ fw=1.2e-07 sa=1.4e-07 sb=1.4e-07 sca=9.20059 scb=0.00764836 scc=0.000159521
MXI1/XI0/XI0/XI0/MNM1	XI1/XI0/XI0/net2#13	A4#2	XI1/XI0/XI0/XI0/net9#3
+ gnd!	g45n1svt	L=4.5e-08	W=1.2e-07
+ AD=1.68e-14	AS=1.68e-14	PD=5.2e-07	PS=5.2e-07
+ fw=1.2e-07 sa=1.4e-07 sb=1.4e-07 sca=9.20059 scb=0.00764836 scc=0.000159521
MXI1/XI0/XI0/XI2/MNM0	gnd!#250	XI1/XI0/XI0/net2#4
+ XI1/XI0/XI0/XI2/net9	gnd!	g45n1svt	L=4.5e-08	W=1.2e-07
+ AD=1.68e-14	AS=7.2e-15	PD=5.2e-07	PS=3.6e-07
+ fw=1.2e-07 sa=1.4e-07 sb=2.45e-07 sca=7.31073 scb=0.00435535 scc=4.26584e-05
MXI1/XI0/XI0/XI2/MNM1	XI1/XI0/XI0/XI2/net9	net14#3
+ XI1/XI0/XI0/net6#8	gnd!	g45n1svt	L=4.5e-08	W=1.2e-07
+ AD=7.2e-15	AS=1.68e-14	PD=3.6e-07	PS=5.2e-07
+ fw=1.2e-07 sa=2.45e-07 sb=1.4e-07 sca=7.31073 scb=0.00435535 scc=4.26584e-05
MXI1/XI0/XI0/XI3/MNM0	gnd!#248	XI1/XI0/XI0/net1#4
+ XI1/XI0/XI0/XI3/net9	gnd!	g45n1svt	L=4.5e-08	W=1.2e-07
+ AD=1.68e-14	AS=7.2e-15	PD=5.2e-07	PS=3.6e-07
+ fw=1.2e-07 sa=1.4e-07 sb=2.45e-07 sca=7.31073 scb=0.00435535 scc=4.26584e-05
MXI1/XI0/XI0/XI3/MNM1	XI1/XI0/XI0/XI3/net9	XI1/XI0/XI0/net6#3
+ XI1/XI0/net5#14	gnd!	g45n1svt	L=4.5e-08	W=1.2e-07
+ AD=7.2e-15	AS=1.68e-14	PD=3.6e-07	PS=5.2e-07
+ fw=1.2e-07 sa=2.45e-07 sb=1.4e-07 sca=7.31073 scb=0.00435535 scc=4.26584e-05
MXI1/XI0/XI0/XI4/MNM1	XI1/XI0/XI0/XI4/net9	B4#12	gnd!#249	gnd!
+ g45n1svt	L=4.5e-08	W=1.2e-07
+ AD=7.2e-15	AS=1.68e-14	PD=3.6e-07	PS=5.2e-07
+ fw=1.2e-07 sa=1.4e-07 sb=2.45e-07 sca=7.31073 scb=0.00435535 scc=4.26584e-05
MXI1/XI0/XI0/XI4/MNM0	XI1/XI0/XI0/net1#8	A4#9	XI1/XI0/XI0/XI4/net9
+ gnd!	g45n1svt	L=4.5e-08	W=1.2e-07
+ AD=1.68e-14	AS=7.2e-15	PD=5.2e-07	PS=3.6e-07
+ fw=1.2e-07 sa=2.45e-07 sb=1.4e-07 sca=7.31073 scb=0.00435535 scc=4.26584e-05
MXI1/XI10/XI12/MNM0	XI1/XI10/net6#7	A7#13	gnd!#55	gnd!
+ g45n1svt	L=4.5e-08	W=1.2e-07
+ AD=1.68e-14	AS=1.68e-14	PD=5.2e-07	PS=5.2e-07
+ fw=1.2e-07 sa=1.4e-07 sb=1.4e-07 sca=9.20059 scb=0.00764836 scc=0.000159521
MXI1/XI10/XI13/MNM0	XI1/XI10/net14#7	B7#20	gnd!#54	gnd!
+ g45n1svt	L=4.5e-08	W=1.2e-07
+ AD=1.68e-14	AS=1.68e-14	PD=5.2e-07	PS=5.2e-07
+ fw=1.2e-07 sa=1.4e-07 sb=1.4e-07 sca=9.20059 scb=0.00764836 scc=0.000159521
MXI1/XI10/MNM3	XI1/XI10/net9	B7#18	gnd!#53	gnd!	g45n1svt
+ L=4.5e-08	W=1.2e-07
+ AD=1.68e-14	AS=1.68e-14	PD=5.2e-07	PS=5.2e-07
+ fw=1.2e-07 sa=1.4e-07 sb=1.4e-07 sca=9.20059 scb=0.00764836 scc=0.000159521
MXI1/XI10/MNM0	XI1/net8#9	XI1/XI10/net6#4	XI1/XI10/net1#2
+ gnd!	g45n1svt	L=4.5e-08	W=1.2e-07
+ AD=1.68e-14	AS=1.68e-14	PD=5.2e-07	PS=5.2e-07
+ fw=1.2e-07 sa=1.4e-07 sb=1.4e-07 sca=9.20059 scb=0.00764836 scc=0.000159521
MXI1/XI10/MNM2	XI1/XI10/net1	XI1/XI10/net14#4	gnd!#52	gnd!
+ g45n1svt	L=4.5e-08	W=1.2e-07
+ AD=1.68e-14	AS=1.68e-14	PD=5.2e-07	PS=5.2e-07
+ fw=1.2e-07 sa=1.4e-07 sb=1.4e-07 sca=9.20059 scb=0.00764836 scc=0.000159521
MXI1/XI10/MNM1	XI1/net8#5	A7#12	XI1/XI10/net9#3	gnd!
+ g45n1svt	L=4.5e-08	W=1.2e-07
+ AD=1.68e-14	AS=1.68e-14	PD=5.2e-07	PS=5.2e-07
+ fw=1.2e-07 sa=1.4e-07 sb=1.4e-07 sca=9.20059 scb=0.00764836 scc=0.000159521
MXI1/XI9/XI12/MNM0	XI1/XI9/net6#7	A6#13	gnd!#213	gnd!
+ g45n1svt	L=4.5e-08	W=1.2e-07
+ AD=1.68e-14	AS=1.68e-14	PD=5.2e-07	PS=5.2e-07
+ fw=1.2e-07 sa=1.4e-07 sb=1.4e-07 sca=9.20059 scb=0.00764836 scc=0.000159521
MXI1/XI9/XI13/MNM0	XI1/XI9/net14#7	B6#20	gnd!#69	gnd!
+ g45n1svt	L=4.5e-08	W=1.2e-07
+ AD=1.68e-14	AS=1.68e-14	PD=5.2e-07	PS=5.2e-07
+ fw=1.2e-07 sa=1.4e-07 sb=1.4e-07 sca=9.20059 scb=0.00764836 scc=0.000159521
MXI1/XI9/MNM3	XI1/XI9/net9	B6#18	gnd!#68	gnd!	g45n1svt
+ L=4.5e-08	W=1.2e-07
+ AD=1.68e-14	AS=1.68e-14	PD=5.2e-07	PS=5.2e-07
+ fw=1.2e-07 sa=1.4e-07 sb=1.4e-07 sca=9.20059 scb=0.00764836 scc=0.000159521
MXI1/XI9/MNM0	XI1/net7#9	XI1/XI9/net6#4	XI1/XI9/net1#2	gnd!
+ g45n1svt	L=4.5e-08	W=1.2e-07
+ AD=1.68e-14	AS=1.68e-14	PD=5.2e-07	PS=5.2e-07
+ fw=1.2e-07 sa=1.4e-07 sb=1.4e-07 sca=9.20059 scb=0.00764836 scc=0.000159521
MXI1/XI9/MNM2	XI1/XI9/net1	XI1/XI9/net14#4	gnd!#67	gnd!
+ g45n1svt	L=4.5e-08	W=1.2e-07
+ AD=1.68e-14	AS=1.68e-14	PD=5.2e-07	PS=5.2e-07
+ fw=1.2e-07 sa=1.4e-07 sb=1.4e-07 sca=9.20059 scb=0.00764836 scc=0.000159521
MXI1/XI9/MNM1	XI1/net7#5	A6#12	XI1/XI9/net9#3	gnd!	g45n1svt
+ L=4.5e-08	W=1.2e-07
+ AD=1.68e-14	AS=1.68e-14	PD=5.2e-07	PS=5.2e-07
+ fw=1.2e-07 sa=1.4e-07 sb=1.4e-07 sca=9.20059 scb=0.00764836 scc=0.000159521
MXI1/XI8/XI12/MNM0	XI1/XI8/net6#7	A5#13	gnd!#228	gnd!
+ g45n1svt	L=4.5e-08	W=1.2e-07
+ AD=1.68e-14	AS=1.68e-14	PD=5.2e-07	PS=5.2e-07
+ fw=1.2e-07 sa=1.4e-07 sb=1.4e-07 sca=9.20059 scb=0.00764836 scc=0.000159521
MXI1/XI8/XI13/MNM0	XI1/XI8/net14#7	B5#20	gnd!#227	gnd!
+ g45n1svt	L=4.5e-08	W=1.2e-07
+ AD=1.68e-14	AS=1.68e-14	PD=5.2e-07	PS=5.2e-07
+ fw=1.2e-07 sa=1.4e-07 sb=1.4e-07 sca=9.20059 scb=0.00764836 scc=0.000159521
MXI1/XI8/MNM3	XI1/XI8/net9	B5#18	gnd!#226	gnd!	g45n1svt
+ L=4.5e-08	W=1.2e-07
+ AD=1.68e-14	AS=1.68e-14	PD=5.2e-07	PS=5.2e-07
+ fw=1.2e-07 sa=1.4e-07 sb=1.4e-07 sca=9.20059 scb=0.00764836 scc=0.000159521
MXI1/XI8/MNM0	XI1/net6#9	XI1/XI8/net6#4	XI1/XI8/net1#2	gnd!
+ g45n1svt	L=4.5e-08	W=1.2e-07
+ AD=1.68e-14	AS=1.68e-14	PD=5.2e-07	PS=5.2e-07
+ fw=1.2e-07 sa=1.4e-07 sb=1.4e-07 sca=9.20059 scb=0.00764836 scc=0.000159521
MXI1/XI8/MNM2	XI1/XI8/net1	XI1/XI8/net14#4	gnd!#225	gnd!
+ g45n1svt	L=4.5e-08	W=1.2e-07
+ AD=1.68e-14	AS=1.68e-14	PD=5.2e-07	PS=5.2e-07
+ fw=1.2e-07 sa=1.4e-07 sb=1.4e-07 sca=9.20059 scb=0.00764836 scc=0.000159521
MXI1/XI8/MNM1	XI1/net6#5	A5#12	XI1/XI8/net9#3	gnd!	g45n1svt
+ L=4.5e-08	W=1.2e-07
+ AD=1.68e-14	AS=1.68e-14	PD=5.2e-07	PS=5.2e-07
+ fw=1.2e-07 sa=1.4e-07 sb=1.4e-07 sca=9.20059 scb=0.00764836 scc=0.000159521
MXI1/XI7/XI12/MNM0	XI1/XI7/net6#7	A4#13	gnd!#243	gnd!
+ g45n1svt	L=4.5e-08	W=1.2e-07
+ AD=1.68e-14	AS=1.68e-14	PD=5.2e-07	PS=5.2e-07
+ fw=1.2e-07 sa=1.4e-07 sb=1.4e-07 sca=9.20059 scb=0.00764836 scc=0.000159521
MXI1/XI7/XI13/MNM0	XI1/XI7/net14#7	B4#20	gnd!#242	gnd!
+ g45n1svt	L=4.5e-08	W=1.2e-07
+ AD=1.68e-14	AS=1.68e-14	PD=5.2e-07	PS=5.2e-07
+ fw=1.2e-07 sa=1.4e-07 sb=1.4e-07 sca=9.20059 scb=0.00764836 scc=0.000159521
MXI1/XI7/MNM3	XI1/XI7/net9	B4#18	gnd!#241	gnd!	g45n1svt
+ L=4.5e-08	W=1.2e-07
+ AD=1.68e-14	AS=1.68e-14	PD=5.2e-07	PS=5.2e-07
+ fw=1.2e-07 sa=1.4e-07 sb=1.4e-07 sca=9.20059 scb=0.00764836 scc=0.000159521
MXI1/XI7/MNM0	XI1/net4#9	XI1/XI7/net6#4	XI1/XI7/net1#2	gnd!
+ g45n1svt	L=4.5e-08	W=1.2e-07
+ AD=1.68e-14	AS=1.68e-14	PD=5.2e-07	PS=5.2e-07
+ fw=1.2e-07 sa=1.4e-07 sb=1.4e-07 sca=9.20059 scb=0.00764836 scc=0.000159521
MXI1/XI7/MNM2	XI1/XI7/net1	XI1/XI7/net14#4	gnd!#240	gnd!
+ g45n1svt	L=4.5e-08	W=1.2e-07
+ AD=1.68e-14	AS=1.68e-14	PD=5.2e-07	PS=5.2e-07
+ fw=1.2e-07 sa=1.4e-07 sb=1.4e-07 sca=9.20059 scb=0.00764836 scc=0.000159521
MXI1/XI7/MNM1	XI1/net4#5	A4#12	XI1/XI7/net9#3	gnd!	g45n1svt
+ L=4.5e-08	W=1.2e-07
+ AD=1.68e-14	AS=1.68e-14	PD=5.2e-07	PS=5.2e-07
+ fw=1.2e-07 sa=1.4e-07 sb=1.4e-07 sca=9.20059 scb=0.00764836 scc=0.000159521
MXI0/XI11/XI2/MNM0	XI0/XI11/net1#7	XI0/net2#3	gnd!#258
+ gnd!	g45n1svt	L=4.5e-08	W=1.2e-07
+ AD=1.68e-14	AS=1.68e-14	PD=5.2e-07	PS=5.2e-07
+ fw=1.2e-07 sa=1.4e-07 sb=1.4e-07 sca=9.72117 scb=0.00853087 scc=0.000206786
MXI0/XI11/MNM3	XI0/XI11/net21	XI0/XI11/net1#4	gnd!#257	gnd!
+ g45n1svt	L=4.5e-08	W=1.2e-07
+ AD=1.68e-14	AS=1.68e-14	PD=5.2e-07	PS=5.2e-07
+ fw=1.2e-07 sa=1.4e-07 sb=1.4e-07 sca=9.72117 scb=0.00853087 scc=0.000206786
MXI0/XI11/MNM4	XI0/XI11/net25#2	XI0/net2#2	gnd!#256	gnd!
+ g45n1svt	L=4.5e-08	W=1.2e-07
+ AD=1.68e-14	AS=1.68e-14	PD=5.2e-07	PS=5.2e-07
+ fw=1.2e-07 sa=1.4e-07 sb=1.4e-07 sca=9.72117 scb=0.00853087 scc=0.000206786
MXI0/XI11/MNM0	XI0/XI11/net6#8	XI0/net1#4	XI0/XI11/net21#3
+ gnd!	g45n1svt	L=4.5e-08	W=1.2e-07
+ AD=1.68e-14	AS=1.68e-14	PD=5.2e-07	PS=5.2e-07
+ fw=1.2e-07 sa=1.4e-07 sb=1.4e-07 sca=9.72117 scb=0.00853087 scc=0.000206786
MXI0/XI11/MNM1	XI0/XI11/net6#9	Cin#14	XI0/XI11/net25	gnd!
+ g45n1svt	L=4.5e-08	W=1.2e-07
+ AD=1.68e-14	AS=1.68e-14	PD=5.2e-07	PS=5.2e-07
+ fw=1.2e-07 sa=1.4e-07 sb=1.4e-07 sca=9.72117 scb=0.00853087 scc=0.000206786
MXI0/XI11/MNM2	net14#17	XI0/XI11/net6#4	gnd!#255	gnd!
+ g45n1svt	L=4.5e-08	W=1.2e-07
+ AD=1.68e-14	AS=1.68e-14	PD=5.2e-07	PS=5.2e-07
+ fw=1.2e-07 sa=1.4e-07 sb=1.4e-07 sca=9.72117 scb=0.00853087 scc=0.000206786
MXI0/XI5/XI5/MNM0	XI0/net2#9	XI0/XI5/net1#4	gnd!#259	gnd!
+ g45n1svt	L=4.5e-08	W=1.2e-07
+ AD=1.68e-14	AS=1.68e-14	PD=5.2e-07	PS=5.2e-07
+ fw=1.2e-07 sa=1.4e-07 sb=1.4e-07 sca=16.6908 scb=0.0179614 scc=0.00130074
MXI0/XI5/XI3/MNM0	XI0/XI5/net2#7	XI0/XI5/net3#4	gnd!#261	gnd!
+ g45n1svt	L=4.5e-08	W=1.2e-07
+ AD=1.68e-14	AS=1.68e-14	PD=5.2e-07	PS=5.2e-07
+ fw=1.2e-07 sa=1.4e-07 sb=1.4e-07 sca=16.6908 scb=0.0179614 scc=0.00130074
MXI0/XI5/XI4/MNM0	XI0/XI5/net5#7	XI0/XI5/net6#4	gnd!#263	gnd!
+ g45n1svt	L=4.5e-08	W=1.2e-07
+ AD=1.68e-14	AS=1.68e-14	PD=5.2e-07	PS=5.2e-07
+ fw=1.2e-07 sa=1.4e-07 sb=1.4e-07 sca=16.6908 scb=0.0179614 scc=0.00130074
MXI0/XI5/XI6/MNM1	XI0/XI5/XI6/net9	XI0/XI5/net2#4	gnd!#260
+ gnd!	g45n1svt	L=4.5e-08	W=1.2e-07
+ AD=7.2e-15	AS=1.68e-14	PD=3.6e-07	PS=5.2e-07
+ fw=1.2e-07 sa=1.4e-07 sb=2.45e-07 sca=7.31073 scb=0.00435535 scc=4.26584e-05
MXI0/XI5/XI6/MNM0	XI0/XI5/net1#5	XI0/XI5/net5#3	XI0/XI5/XI6/net9
+ gnd!	g45n1svt	L=4.5e-08	W=1.2e-07
+ AD=1.68e-14	AS=7.2e-15	PD=5.2e-07	PS=3.6e-07
+ fw=1.2e-07 sa=2.45e-07 sb=1.4e-07 sca=7.31073 scb=0.00435535 scc=4.26584e-05
MXI0/XI5/XI0/MNM0	gnd!#262	XI0/net6#4	XI0/XI5/XI0/net9
+ gnd!	g45n1svt	L=4.5e-08	W=1.2e-07
+ AD=1.68e-14	AS=7.2e-15	PD=5.2e-07	PS=3.6e-07
+ fw=1.2e-07 sa=1.4e-07 sb=2.45e-07 sca=7.31073 scb=0.00435535 scc=4.26584e-05
MXI0/XI5/XI0/MNM1	XI0/XI5/XI0/net9	XI0/net4#3	XI0/XI5/net3#5
+ gnd!	g45n1svt	L=4.5e-08	W=1.2e-07
+ AD=7.2e-15	AS=1.68e-14	PD=3.6e-07	PS=5.2e-07
+ fw=1.2e-07 sa=2.45e-07 sb=1.4e-07 sca=7.31073 scb=0.00435535 scc=4.26584e-05
MXI0/XI5/XI1/MNM0	gnd!#264	XI0/net8#4	XI0/XI5/XI1/net9
+ gnd!	g45n1svt	L=4.5e-08	W=1.2e-07
+ AD=1.68e-14	AS=7.2e-15	PD=5.2e-07	PS=3.6e-07
+ fw=1.2e-07 sa=1.4e-07 sb=2.45e-07 sca=7.31073 scb=0.00435535 scc=4.26584e-05
MXI0/XI5/XI1/MNM1	XI0/XI5/XI1/net9	XI0/net7#3	XI0/XI5/net6#5
+ gnd!	g45n1svt	L=4.5e-08	W=1.2e-07
+ AD=7.2e-15	AS=1.68e-14	PD=3.6e-07	PS=5.2e-07
+ fw=1.2e-07 sa=2.45e-07 sb=1.4e-07 sca=7.31073 scb=0.00435535 scc=4.26584e-05
MXI0/XI0/XI3/XI9/XI13/MNM0	XI0/XI0/XI3/XI9/net2#7	XI0/XI0/net1#7
+ gnd!#272	gnd!	g45n1svt	L=4.5e-08	W=1.2e-07
+ AD=1.68e-14	AS=1.68e-14	PD=5.2e-07	PS=5.2e-07
+ fw=1.2e-07 sa=1.4e-07 sb=1.4e-07 sca=9.20059 scb=0.00764836 scc=0.000159521
MXI0/XI0/XI3/XI9/XI12/MNM0	XI0/XI0/XI3/XI9/net6#7	XI0/XI0/XI3/net2#12
+ gnd!#271	gnd!	g45n1svt	L=4.5e-08	W=1.2e-07
+ AD=1.68e-14	AS=1.68e-14	PD=5.2e-07	PS=5.2e-07
+ fw=1.2e-07 sa=1.4e-07 sb=1.4e-07 sca=9.20059 scb=0.00764836 scc=0.000159521
MXI0/XI0/XI3/XI9/MNM1	gnd!#270	XI0/XI0/XI3/net2#10
+ XI0/XI0/XI3/XI9/net9	gnd!	g45n1svt	L=4.5e-08	W=1.2e-07
+ AD=1.68e-14	AS=1.68e-14	PD=5.2e-07	PS=5.2e-07
+ fw=1.2e-07 sa=1.4e-07 sb=1.4e-07 sca=9.20059 scb=0.00764836 scc=0.000159521
MXI0/XI0/XI3/XI9/MNM2	XI0/XI0/XI3/XI9/net1#2	XI0/XI0/XI3/XI9/net2#4	S3#4
+ gnd!	g45n1svt	L=4.5e-08	W=1.2e-07
+ AD=1.68e-14	AS=1.68e-14	PD=5.2e-07	PS=5.2e-07
+ fw=1.2e-07 sa=1.4e-07 sb=1.4e-07 sca=9.20059 scb=0.00764836 scc=0.000159521
MXI0/XI0/XI3/XI9/MNM0	gnd!#269	XI0/XI0/XI3/XI9/net6#4
+ XI0/XI0/XI3/XI9/net1	gnd!	g45n1svt	L=4.5e-08	W=1.2e-07
+ AD=1.68e-14	AS=1.68e-14	PD=5.2e-07	PS=5.2e-07
+ fw=1.2e-07 sa=1.4e-07 sb=1.4e-07 sca=9.20059 scb=0.00764836 scc=0.000159521
MXI0/XI0/XI3/XI9/MNM3	XI0/XI0/XI3/XI9/net9#3	XI0/XI0/net1#6	S3#1	gnd!
+ g45n1svt	L=4.5e-08	W=1.2e-07
+ AD=1.68e-14	AS=1.68e-14	PD=5.2e-07	PS=5.2e-07
+ fw=1.2e-07 sa=1.4e-07 sb=1.4e-07 sca=9.20059 scb=0.00764836 scc=0.000159521
MXI0/XI0/XI3/XI0/XI12/MNM0	XI0/XI0/XI3/XI0/net6#7	A3#3	gnd!#279
+ gnd!	g45n1svt	L=4.5e-08	W=1.2e-07
+ AD=1.68e-14	AS=1.68e-14	PD=5.2e-07	PS=5.2e-07
+ fw=1.2e-07 sa=1.4e-07 sb=1.4e-07 sca=9.20059 scb=0.00764836 scc=0.000159521
MXI0/XI0/XI3/XI0/XI13/MNM0	XI0/XI0/XI3/XI0/net2#7	B3#8	gnd!#278
+ gnd!	g45n1svt	L=4.5e-08	W=1.2e-07
+ AD=1.68e-14	AS=1.68e-14	PD=5.2e-07	PS=5.2e-07
+ fw=1.2e-07 sa=1.4e-07 sb=1.4e-07 sca=9.20059 scb=0.00764836 scc=0.000159521
MXI0/XI0/XI3/XI0/MNM3	XI0/XI0/XI3/XI0/net9	B3#6	gnd!#277	gnd!
+ g45n1svt	L=4.5e-08	W=1.2e-07
+ AD=1.68e-14	AS=1.68e-14	PD=5.2e-07	PS=5.2e-07
+ fw=1.2e-07 sa=1.4e-07 sb=1.4e-07 sca=9.20059 scb=0.00764836 scc=0.000159521
MXI0/XI0/XI3/XI0/MNM0	XI0/XI0/XI3/net2#17	XI0/XI0/XI3/XI0/net6#4
+ XI0/XI0/XI3/XI0/net1#2	gnd!	g45n1svt	L=4.5e-08
+ W=1.2e-07
+ AD=1.68e-14	AS=1.68e-14	PD=5.2e-07	PS=5.2e-07
+ fw=1.2e-07 sa=1.4e-07 sb=1.4e-07 sca=9.20059 scb=0.00764836 scc=0.000159521
MXI0/XI0/XI3/XI0/MNM2	XI0/XI0/XI3/XI0/net1	XI0/XI0/XI3/XI0/net2#4
+ gnd!#276	gnd!	g45n1svt	L=4.5e-08	W=1.2e-07
+ AD=1.68e-14	AS=1.68e-14	PD=5.2e-07	PS=5.2e-07
+ fw=1.2e-07 sa=1.4e-07 sb=1.4e-07 sca=9.20059 scb=0.00764836 scc=0.000159521
MXI0/XI0/XI3/XI0/MNM1	XI0/XI0/XI3/net2#13	A3#2	XI0/XI0/XI3/XI0/net9#3
+ gnd!	g45n1svt	L=4.5e-08	W=1.2e-07
+ AD=1.68e-14	AS=1.68e-14	PD=5.2e-07	PS=5.2e-07
+ fw=1.2e-07 sa=1.4e-07 sb=1.4e-07 sca=9.20059 scb=0.00764836 scc=0.000159521
MXI0/XI0/XI3/XI2/MNM0	gnd!#275	XI0/XI0/XI3/net2#4
+ XI0/XI0/XI3/XI2/net9	gnd!	g45n1svt	L=4.5e-08	W=1.2e-07
+ AD=1.68e-14	AS=7.2e-15	PD=5.2e-07	PS=3.6e-07
+ fw=1.2e-07 sa=1.4e-07 sb=2.45e-07 sca=7.31073 scb=0.00435535 scc=4.26584e-05
MXI0/XI0/XI3/XI2/MNM1	XI0/XI0/XI3/XI2/net9	XI0/XI0/net1#3
+ XI0/XI0/XI3/net6#8	gnd!	g45n1svt	L=4.5e-08	W=1.2e-07
+ AD=7.2e-15	AS=1.68e-14	PD=3.6e-07	PS=5.2e-07
+ fw=1.2e-07 sa=2.45e-07 sb=1.4e-07 sca=7.31073 scb=0.00435535 scc=4.26584e-05
MXI0/XI0/XI3/XI3/MNM0	gnd!#273	XI0/XI0/XI3/net1#4
+ XI0/XI0/XI3/XI3/net9	gnd!	g45n1svt	L=4.5e-08	W=1.2e-07
+ AD=1.68e-14	AS=7.2e-15	PD=5.2e-07	PS=3.6e-07
+ fw=1.2e-07 sa=1.4e-07 sb=2.45e-07 sca=7.31073 scb=0.00435535 scc=4.26584e-05
MXI0/XI0/XI3/XI3/MNM1	XI0/XI0/XI3/XI3/net9	XI0/XI0/XI3/net6#3
+ XI0/net1#8	gnd!	g45n1svt	L=4.5e-08	W=1.2e-07
+ AD=7.2e-15	AS=1.68e-14	PD=3.6e-07	PS=5.2e-07
+ fw=1.2e-07 sa=2.45e-07 sb=1.4e-07 sca=7.31073 scb=0.00435535 scc=4.26584e-05
MXI0/XI0/XI3/XI4/MNM1	XI0/XI0/XI3/XI4/net9	B3#12	gnd!#274	gnd!
+ g45n1svt	L=4.5e-08	W=1.2e-07
+ AD=7.2e-15	AS=1.68e-14	PD=3.6e-07	PS=5.2e-07
+ fw=1.2e-07 sa=1.4e-07 sb=2.45e-07 sca=7.31073 scb=0.00435535 scc=4.26584e-05
MXI0/XI0/XI3/XI4/MNM0	XI0/XI0/XI3/net1#8	A3#9	XI0/XI0/XI3/XI4/net9
+ gnd!	g45n1svt	L=4.5e-08	W=1.2e-07
+ AD=1.68e-14	AS=7.2e-15	PD=5.2e-07	PS=3.6e-07
+ fw=1.2e-07 sa=2.45e-07 sb=1.4e-07 sca=7.31073 scb=0.00435535 scc=4.26584e-05
MXI0/XI0/XI2/XI9/XI13/MNM0	XI0/XI0/XI2/XI9/net2#7	XI0/XI0/net10#7
+ gnd!#287	gnd!	g45n1svt	L=4.5e-08	W=1.2e-07
+ AD=1.68e-14	AS=1.68e-14	PD=5.2e-07	PS=5.2e-07
+ fw=1.2e-07 sa=1.4e-07 sb=1.4e-07 sca=9.20059 scb=0.00764836 scc=0.000159521
MXI0/XI0/XI2/XI9/XI12/MNM0	XI0/XI0/XI2/XI9/net6#7	XI0/XI0/XI2/net2#12
+ gnd!#286	gnd!	g45n1svt	L=4.5e-08	W=1.2e-07
+ AD=1.68e-14	AS=1.68e-14	PD=5.2e-07	PS=5.2e-07
+ fw=1.2e-07 sa=1.4e-07 sb=1.4e-07 sca=9.20059 scb=0.00764836 scc=0.000159521
MXI0/XI0/XI2/XI9/MNM1	gnd!#285	XI0/XI0/XI2/net2#10
+ XI0/XI0/XI2/XI9/net9	gnd!	g45n1svt	L=4.5e-08	W=1.2e-07
+ AD=1.68e-14	AS=1.68e-14	PD=5.2e-07	PS=5.2e-07
+ fw=1.2e-07 sa=1.4e-07 sb=1.4e-07 sca=9.20059 scb=0.00764836 scc=0.000159521
MXI0/XI0/XI2/XI9/MNM2	XI0/XI0/XI2/XI9/net1#2	XI0/XI0/XI2/XI9/net2#4	S2#4
+ gnd!	g45n1svt	L=4.5e-08	W=1.2e-07
+ AD=1.68e-14	AS=1.68e-14	PD=5.2e-07	PS=5.2e-07
+ fw=1.2e-07 sa=1.4e-07 sb=1.4e-07 sca=9.20059 scb=0.00764836 scc=0.000159521
MXI0/XI0/XI2/XI9/MNM0	gnd!#284	XI0/XI0/XI2/XI9/net6#4
+ XI0/XI0/XI2/XI9/net1	gnd!	g45n1svt	L=4.5e-08	W=1.2e-07
+ AD=1.68e-14	AS=1.68e-14	PD=5.2e-07	PS=5.2e-07
+ fw=1.2e-07 sa=1.4e-07 sb=1.4e-07 sca=9.20059 scb=0.00764836 scc=0.000159521
MXI0/XI0/XI2/XI9/MNM3	XI0/XI0/XI2/XI9/net9#3	XI0/XI0/net10#6	S2#1
+ gnd!	g45n1svt	L=4.5e-08	W=1.2e-07
+ AD=1.68e-14	AS=1.68e-14	PD=5.2e-07	PS=5.2e-07
+ fw=1.2e-07 sa=1.4e-07 sb=1.4e-07 sca=9.20059 scb=0.00764836 scc=0.000159521
MXI0/XI0/XI2/XI0/XI12/MNM0	XI0/XI0/XI2/XI0/net6#7	A2#3	gnd!#294
+ gnd!	g45n1svt	L=4.5e-08	W=1.2e-07
+ AD=1.68e-14	AS=1.68e-14	PD=5.2e-07	PS=5.2e-07
+ fw=1.2e-07 sa=1.4e-07 sb=1.4e-07 sca=9.20059 scb=0.00764836 scc=0.000159521
MXI0/XI0/XI2/XI0/XI13/MNM0	XI0/XI0/XI2/XI0/net2#7	B2#8	gnd!#293
+ gnd!	g45n1svt	L=4.5e-08	W=1.2e-07
+ AD=1.68e-14	AS=1.68e-14	PD=5.2e-07	PS=5.2e-07
+ fw=1.2e-07 sa=1.4e-07 sb=1.4e-07 sca=9.20059 scb=0.00764836 scc=0.000159521
MXI0/XI0/XI2/XI0/MNM3	XI0/XI0/XI2/XI0/net9	B2#6	gnd!#292	gnd!
+ g45n1svt	L=4.5e-08	W=1.2e-07
+ AD=1.68e-14	AS=1.68e-14	PD=5.2e-07	PS=5.2e-07
+ fw=1.2e-07 sa=1.4e-07 sb=1.4e-07 sca=9.20059 scb=0.00764836 scc=0.000159521
MXI0/XI0/XI2/XI0/MNM0	XI0/XI0/XI2/net2#17	XI0/XI0/XI2/XI0/net6#4
+ XI0/XI0/XI2/XI0/net1#2	gnd!	g45n1svt	L=4.5e-08
+ W=1.2e-07
+ AD=1.68e-14	AS=1.68e-14	PD=5.2e-07	PS=5.2e-07
+ fw=1.2e-07 sa=1.4e-07 sb=1.4e-07 sca=9.20059 scb=0.00764836 scc=0.000159521
MXI0/XI0/XI2/XI0/MNM2	XI0/XI0/XI2/XI0/net1	XI0/XI0/XI2/XI0/net2#4
+ gnd!#291	gnd!	g45n1svt	L=4.5e-08	W=1.2e-07
+ AD=1.68e-14	AS=1.68e-14	PD=5.2e-07	PS=5.2e-07
+ fw=1.2e-07 sa=1.4e-07 sb=1.4e-07 sca=9.20059 scb=0.00764836 scc=0.000159521
MXI0/XI0/XI2/XI0/MNM1	XI0/XI0/XI2/net2#13	A2#2	XI0/XI0/XI2/XI0/net9#3
+ gnd!	g45n1svt	L=4.5e-08	W=1.2e-07
+ AD=1.68e-14	AS=1.68e-14	PD=5.2e-07	PS=5.2e-07
+ fw=1.2e-07 sa=1.4e-07 sb=1.4e-07 sca=9.20059 scb=0.00764836 scc=0.000159521
MXI0/XI0/XI2/XI2/MNM0	gnd!#290	XI0/XI0/XI2/net2#4
+ XI0/XI0/XI2/XI2/net9	gnd!	g45n1svt	L=4.5e-08	W=1.2e-07
+ AD=1.68e-14	AS=7.2e-15	PD=5.2e-07	PS=3.6e-07
+ fw=1.2e-07 sa=1.4e-07 sb=2.45e-07 sca=7.31073 scb=0.00435535 scc=4.26584e-05
MXI0/XI0/XI2/XI2/MNM1	XI0/XI0/XI2/XI2/net9	XI0/XI0/net10#3
+ XI0/XI0/XI2/net6#8	gnd!	g45n1svt	L=4.5e-08	W=1.2e-07
+ AD=7.2e-15	AS=1.68e-14	PD=3.6e-07	PS=5.2e-07
+ fw=1.2e-07 sa=2.45e-07 sb=1.4e-07 sca=7.31073 scb=0.00435535 scc=4.26584e-05
MXI0/XI0/XI2/XI3/MNM0	gnd!#288	XI0/XI0/XI2/net1#4
+ XI0/XI0/XI2/XI3/net9	gnd!	g45n1svt	L=4.5e-08	W=1.2e-07
+ AD=1.68e-14	AS=7.2e-15	PD=5.2e-07	PS=3.6e-07
+ fw=1.2e-07 sa=1.4e-07 sb=2.45e-07 sca=7.31073 scb=0.00435535 scc=4.26584e-05
MXI0/XI0/XI2/XI3/MNM1	XI0/XI0/XI2/XI3/net9	XI0/XI0/XI2/net6#3
+ XI0/XI0/net1#14	gnd!	g45n1svt	L=4.5e-08	W=1.2e-07
+ AD=7.2e-15	AS=1.68e-14	PD=3.6e-07	PS=5.2e-07
+ fw=1.2e-07 sa=2.45e-07 sb=1.4e-07 sca=7.31073 scb=0.00435535 scc=4.26584e-05
MXI0/XI0/XI2/XI4/MNM1	XI0/XI0/XI2/XI4/net9	B2#12	gnd!#289	gnd!
+ g45n1svt	L=4.5e-08	W=1.2e-07
+ AD=7.2e-15	AS=1.68e-14	PD=3.6e-07	PS=5.2e-07
+ fw=1.2e-07 sa=1.4e-07 sb=2.45e-07 sca=7.31073 scb=0.00435535 scc=4.26584e-05
MXI0/XI0/XI2/XI4/MNM0	XI0/XI0/XI2/net1#8	A2#9	XI0/XI0/XI2/XI4/net9
+ gnd!	g45n1svt	L=4.5e-08	W=1.2e-07
+ AD=1.68e-14	AS=7.2e-15	PD=5.2e-07	PS=3.6e-07
+ fw=1.2e-07 sa=2.45e-07 sb=1.4e-07 sca=7.31073 scb=0.00435535 scc=4.26584e-05
MXI0/XI0/XI1/XI9/XI13/MNM0	XI0/XI0/XI1/XI9/net2#7	XI0/XI0/net5#7
+ gnd!#302	gnd!	g45n1svt	L=4.5e-08	W=1.2e-07
+ AD=1.68e-14	AS=1.68e-14	PD=5.2e-07	PS=5.2e-07
+ fw=1.2e-07 sa=1.4e-07 sb=1.4e-07 sca=9.20059 scb=0.00764836 scc=0.000159521
MXI0/XI0/XI1/XI9/XI12/MNM0	XI0/XI0/XI1/XI9/net6#7	XI0/XI0/XI1/net2#12
+ gnd!#301	gnd!	g45n1svt	L=4.5e-08	W=1.2e-07
+ AD=1.68e-14	AS=1.68e-14	PD=5.2e-07	PS=5.2e-07
+ fw=1.2e-07 sa=1.4e-07 sb=1.4e-07 sca=9.20059 scb=0.00764836 scc=0.000159521
MXI0/XI0/XI1/XI9/MNM1	gnd!#300	XI0/XI0/XI1/net2#10
+ XI0/XI0/XI1/XI9/net9	gnd!	g45n1svt	L=4.5e-08	W=1.2e-07
+ AD=1.68e-14	AS=1.68e-14	PD=5.2e-07	PS=5.2e-07
+ fw=1.2e-07 sa=1.4e-07 sb=1.4e-07 sca=9.20059 scb=0.00764836 scc=0.000159521
MXI0/XI0/XI1/XI9/MNM2	XI0/XI0/XI1/XI9/net1#2	XI0/XI0/XI1/XI9/net2#4	S1#4
+ gnd!	g45n1svt	L=4.5e-08	W=1.2e-07
+ AD=1.68e-14	AS=1.68e-14	PD=5.2e-07	PS=5.2e-07
+ fw=1.2e-07 sa=1.4e-07 sb=1.4e-07 sca=9.20059 scb=0.00764836 scc=0.000159521
MXI0/XI0/XI1/XI9/MNM0	gnd!#299	XI0/XI0/XI1/XI9/net6#4
+ XI0/XI0/XI1/XI9/net1	gnd!	g45n1svt	L=4.5e-08	W=1.2e-07
+ AD=1.68e-14	AS=1.68e-14	PD=5.2e-07	PS=5.2e-07
+ fw=1.2e-07 sa=1.4e-07 sb=1.4e-07 sca=9.20059 scb=0.00764836 scc=0.000159521
MXI0/XI0/XI1/XI9/MNM3	XI0/XI0/XI1/XI9/net9#3	XI0/XI0/net5#6	S1#1	gnd!
+ g45n1svt	L=4.5e-08	W=1.2e-07
+ AD=1.68e-14	AS=1.68e-14	PD=5.2e-07	PS=5.2e-07
+ fw=1.2e-07 sa=1.4e-07 sb=1.4e-07 sca=9.20059 scb=0.00764836 scc=0.000159521
MXI0/XI0/XI1/XI0/XI12/MNM0	XI0/XI0/XI1/XI0/net6#7	A1#3	gnd!#309
+ gnd!	g45n1svt	L=4.5e-08	W=1.2e-07
+ AD=1.68e-14	AS=1.68e-14	PD=5.2e-07	PS=5.2e-07
+ fw=1.2e-07 sa=1.4e-07 sb=1.4e-07 sca=9.20059 scb=0.00764836 scc=0.000159521
MXI0/XI0/XI1/XI0/XI13/MNM0	XI0/XI0/XI1/XI0/net2#7	B1#8	gnd!#308
+ gnd!	g45n1svt	L=4.5e-08	W=1.2e-07
+ AD=1.68e-14	AS=1.68e-14	PD=5.2e-07	PS=5.2e-07
+ fw=1.2e-07 sa=1.4e-07 sb=1.4e-07 sca=9.20059 scb=0.00764836 scc=0.000159521
MXI0/XI0/XI1/XI0/MNM3	XI0/XI0/XI1/XI0/net9	B1#6	gnd!#307	gnd!
+ g45n1svt	L=4.5e-08	W=1.2e-07
+ AD=1.68e-14	AS=1.68e-14	PD=5.2e-07	PS=5.2e-07
+ fw=1.2e-07 sa=1.4e-07 sb=1.4e-07 sca=9.20059 scb=0.00764836 scc=0.000159521
MXI0/XI0/XI1/XI0/MNM0	XI0/XI0/XI1/net2#17	XI0/XI0/XI1/XI0/net6#4
+ XI0/XI0/XI1/XI0/net1#2	gnd!	g45n1svt	L=4.5e-08
+ W=1.2e-07
+ AD=1.68e-14	AS=1.68e-14	PD=5.2e-07	PS=5.2e-07
+ fw=1.2e-07 sa=1.4e-07 sb=1.4e-07 sca=9.20059 scb=0.00764836 scc=0.000159521
MXI0/XI0/XI1/XI0/MNM2	XI0/XI0/XI1/XI0/net1	XI0/XI0/XI1/XI0/net2#4
+ gnd!#306	gnd!	g45n1svt	L=4.5e-08	W=1.2e-07
+ AD=1.68e-14	AS=1.68e-14	PD=5.2e-07	PS=5.2e-07
+ fw=1.2e-07 sa=1.4e-07 sb=1.4e-07 sca=9.20059 scb=0.00764836 scc=0.000159521
MXI0/XI0/XI1/XI0/MNM1	XI0/XI0/XI1/net2#13	A1#2	XI0/XI0/XI1/XI0/net9#3
+ gnd!	g45n1svt	L=4.5e-08	W=1.2e-07
+ AD=1.68e-14	AS=1.68e-14	PD=5.2e-07	PS=5.2e-07
+ fw=1.2e-07 sa=1.4e-07 sb=1.4e-07 sca=9.20059 scb=0.00764836 scc=0.000159521
MXI0/XI0/XI1/XI2/MNM0	gnd!#305	XI0/XI0/XI1/net2#4
+ XI0/XI0/XI1/XI2/net9	gnd!	g45n1svt	L=4.5e-08	W=1.2e-07
+ AD=1.68e-14	AS=7.2e-15	PD=5.2e-07	PS=3.6e-07
+ fw=1.2e-07 sa=1.4e-07 sb=2.45e-07 sca=7.31073 scb=0.00435535 scc=4.26584e-05
MXI0/XI0/XI1/XI2/MNM1	XI0/XI0/XI1/XI2/net9	XI0/XI0/net5#3
+ XI0/XI0/XI1/net6#8	gnd!	g45n1svt	L=4.5e-08	W=1.2e-07
+ AD=7.2e-15	AS=1.68e-14	PD=3.6e-07	PS=5.2e-07
+ fw=1.2e-07 sa=2.45e-07 sb=1.4e-07 sca=7.31073 scb=0.00435535 scc=4.26584e-05
MXI0/XI0/XI1/XI3/MNM0	gnd!#303	XI0/XI0/XI1/net1#4
+ XI0/XI0/XI1/XI3/net9	gnd!	g45n1svt	L=4.5e-08	W=1.2e-07
+ AD=1.68e-14	AS=7.2e-15	PD=5.2e-07	PS=3.6e-07
+ fw=1.2e-07 sa=1.4e-07 sb=2.45e-07 sca=7.31073 scb=0.00435535 scc=4.26584e-05
MXI0/XI0/XI1/XI3/MNM1	XI0/XI0/XI1/XI3/net9	XI0/XI0/XI1/net6#3
+ XI0/XI0/net10#14	gnd!	g45n1svt	L=4.5e-08	W=1.2e-07
+ AD=7.2e-15	AS=1.68e-14	PD=3.6e-07	PS=5.2e-07
+ fw=1.2e-07 sa=2.45e-07 sb=1.4e-07 sca=7.31073 scb=0.00435535 scc=4.26584e-05
MXI0/XI0/XI1/XI4/MNM1	XI0/XI0/XI1/XI4/net9	B1#12	gnd!#304	gnd!
+ g45n1svt	L=4.5e-08	W=1.2e-07
+ AD=7.2e-15	AS=1.68e-14	PD=3.6e-07	PS=5.2e-07
+ fw=1.2e-07 sa=1.4e-07 sb=2.45e-07 sca=7.31073 scb=0.00435535 scc=4.26584e-05
MXI0/XI0/XI1/XI4/MNM0	XI0/XI0/XI1/net1#8	A1#9	XI0/XI0/XI1/XI4/net9
+ gnd!	g45n1svt	L=4.5e-08	W=1.2e-07
+ AD=1.68e-14	AS=7.2e-15	PD=5.2e-07	PS=3.6e-07
+ fw=1.2e-07 sa=2.45e-07 sb=1.4e-07 sca=7.31073 scb=0.00435535 scc=4.26584e-05
MXI0/XI0/XI0/XI9/XI13/MNM0	XI0/XI0/XI0/XI9/net2#7	Cin#7	gnd!#317
+ gnd!	g45n1svt	L=4.5e-08	W=1.2e-07
+ AD=1.68e-14	AS=1.68e-14	PD=5.2e-07	PS=5.2e-07
+ fw=1.2e-07 sa=1.4e-07 sb=1.4e-07 sca=9.20059 scb=0.00764836 scc=0.000159521
MXI0/XI0/XI0/XI9/XI12/MNM0	XI0/XI0/XI0/XI9/net6#7	XI0/XI0/XI0/net2#12
+ gnd!#316	gnd!	g45n1svt	L=4.5e-08	W=1.2e-07
+ AD=1.68e-14	AS=1.68e-14	PD=5.2e-07	PS=5.2e-07
+ fw=1.2e-07 sa=1.4e-07 sb=1.4e-07 sca=9.20059 scb=0.00764836 scc=0.000159521
MXI0/XI0/XI0/XI9/MNM1	gnd!#315	XI0/XI0/XI0/net2#10
+ XI0/XI0/XI0/XI9/net9	gnd!	g45n1svt	L=4.5e-08	W=1.2e-07
+ AD=1.68e-14	AS=1.68e-14	PD=5.2e-07	PS=5.2e-07
+ fw=1.2e-07 sa=1.4e-07 sb=1.4e-07 sca=9.20059 scb=0.00764836 scc=0.000159521
MXI0/XI0/XI0/XI9/MNM2	XI0/XI0/XI0/XI9/net1#2	XI0/XI0/XI0/XI9/net2#4	S0#4
+ gnd!	g45n1svt	L=4.5e-08	W=1.2e-07
+ AD=1.68e-14	AS=1.68e-14	PD=5.2e-07	PS=5.2e-07
+ fw=1.2e-07 sa=1.4e-07 sb=1.4e-07 sca=9.20059 scb=0.00764836 scc=0.000159521
MXI0/XI0/XI0/XI9/MNM0	gnd!#314	XI0/XI0/XI0/XI9/net6#4
+ XI0/XI0/XI0/XI9/net1	gnd!	g45n1svt	L=4.5e-08	W=1.2e-07
+ AD=1.68e-14	AS=1.68e-14	PD=5.2e-07	PS=5.2e-07
+ fw=1.2e-07 sa=1.4e-07 sb=1.4e-07 sca=9.20059 scb=0.00764836 scc=0.000159521
MXI0/XI0/XI0/XI9/MNM3	XI0/XI0/XI0/XI9/net9#3	Cin#6	S0#1	gnd!
+ g45n1svt	L=4.5e-08	W=1.2e-07
+ AD=1.68e-14	AS=1.68e-14	PD=5.2e-07	PS=5.2e-07
+ fw=1.2e-07 sa=1.4e-07 sb=1.4e-07 sca=9.20059 scb=0.00764836 scc=0.000159521
MXI0/XI0/XI0/XI0/XI12/MNM0	XI0/XI0/XI0/XI0/net6#7	A0#3	gnd!#212
+ gnd!	g45n1svt	L=4.5e-08	W=1.2e-07
+ AD=1.68e-14	AS=1.68e-14	PD=5.2e-07	PS=5.2e-07
+ fw=1.2e-07 sa=1.4e-07 sb=1.4e-07 sca=9.20059 scb=0.00764836 scc=0.000159521
MXI0/XI0/XI0/XI0/XI13/MNM0	XI0/XI0/XI0/XI0/net2#7	B0#8	gnd!#323
+ gnd!	g45n1svt	L=4.5e-08	W=1.2e-07
+ AD=1.68e-14	AS=1.68e-14	PD=5.2e-07	PS=5.2e-07
+ fw=1.2e-07 sa=1.4e-07 sb=1.4e-07 sca=9.20059 scb=0.00764836 scc=0.000159521
MXI0/XI0/XI0/XI0/MNM3	XI0/XI0/XI0/XI0/net9	B0#6	gnd!#322	gnd!
+ g45n1svt	L=4.5e-08	W=1.2e-07
+ AD=1.68e-14	AS=1.68e-14	PD=5.2e-07	PS=5.2e-07
+ fw=1.2e-07 sa=1.4e-07 sb=1.4e-07 sca=9.20059 scb=0.00764836 scc=0.000159521
MXI0/XI0/XI0/XI0/MNM0	XI0/XI0/XI0/net2#17	XI0/XI0/XI0/XI0/net6#4
+ XI0/XI0/XI0/XI0/net1#2	gnd!	g45n1svt	L=4.5e-08
+ W=1.2e-07
+ AD=1.68e-14	AS=1.68e-14	PD=5.2e-07	PS=5.2e-07
+ fw=1.2e-07 sa=1.4e-07 sb=1.4e-07 sca=9.20059 scb=0.00764836 scc=0.000159521
MXI0/XI0/XI0/XI0/MNM2	XI0/XI0/XI0/XI0/net1	XI0/XI0/XI0/XI0/net2#4
+ gnd!#321	gnd!	g45n1svt	L=4.5e-08	W=1.2e-07
+ AD=1.68e-14	AS=1.68e-14	PD=5.2e-07	PS=5.2e-07
+ fw=1.2e-07 sa=1.4e-07 sb=1.4e-07 sca=9.20059 scb=0.00764836 scc=0.000159521
MXI0/XI0/XI0/XI0/MNM1	XI0/XI0/XI0/net2#13	A0#2	XI0/XI0/XI0/XI0/net9#3
+ gnd!	g45n1svt	L=4.5e-08	W=1.2e-07
+ AD=1.68e-14	AS=1.68e-14	PD=5.2e-07	PS=5.2e-07
+ fw=1.2e-07 sa=1.4e-07 sb=1.4e-07 sca=9.20059 scb=0.00764836 scc=0.000159521
MXI0/XI0/XI0/XI2/MNM0	gnd!#320	XI0/XI0/XI0/net2#4
+ XI0/XI0/XI0/XI2/net9	gnd!	g45n1svt	L=4.5e-08	W=1.2e-07
+ AD=1.68e-14	AS=7.2e-15	PD=5.2e-07	PS=3.6e-07
+ fw=1.2e-07 sa=1.4e-07 sb=2.45e-07 sca=7.31073 scb=0.00435535 scc=4.26584e-05
MXI0/XI0/XI0/XI2/MNM1	XI0/XI0/XI0/XI2/net9	Cin#3	XI0/XI0/XI0/net6#8
+ gnd!	g45n1svt	L=4.5e-08	W=1.2e-07
+ AD=7.2e-15	AS=1.68e-14	PD=3.6e-07	PS=5.2e-07
+ fw=1.2e-07 sa=2.45e-07 sb=1.4e-07 sca=7.31073 scb=0.00435535 scc=4.26584e-05
MXI0/XI0/XI0/XI3/MNM0	gnd!#318	XI0/XI0/XI0/net1#4
+ XI0/XI0/XI0/XI3/net9	gnd!	g45n1svt	L=4.5e-08	W=1.2e-07
+ AD=1.68e-14	AS=7.2e-15	PD=5.2e-07	PS=3.6e-07
+ fw=1.2e-07 sa=1.4e-07 sb=2.45e-07 sca=7.31073 scb=0.00435535 scc=4.26584e-05
MXI0/XI0/XI0/XI3/MNM1	XI0/XI0/XI0/XI3/net9	XI0/XI0/XI0/net6#3
+ XI0/XI0/net5#14	gnd!	g45n1svt	L=4.5e-08	W=1.2e-07
+ AD=7.2e-15	AS=1.68e-14	PD=3.6e-07	PS=5.2e-07
+ fw=1.2e-07 sa=2.45e-07 sb=1.4e-07 sca=7.31073 scb=0.00435535 scc=4.26584e-05
MXI0/XI0/XI0/XI4/MNM1	XI0/XI0/XI0/XI4/net9	B0#12	gnd!#319	gnd!
+ g45n1svt	L=4.5e-08	W=1.2e-07
+ AD=7.2e-15	AS=1.68e-14	PD=3.6e-07	PS=5.2e-07
+ fw=1.2e-07 sa=1.4e-07 sb=2.45e-07 sca=7.31073 scb=0.00435535 scc=4.26584e-05
MXI0/XI0/XI0/XI4/MNM0	XI0/XI0/XI0/net1#8	A0#9	XI0/XI0/XI0/XI4/net9
+ gnd!	g45n1svt	L=4.5e-08	W=1.2e-07
+ AD=1.68e-14	AS=7.2e-15	PD=5.2e-07	PS=3.6e-07
+ fw=1.2e-07 sa=2.45e-07 sb=1.4e-07 sca=7.31073 scb=0.00435535 scc=4.26584e-05
MXI0/XI10/XI12/MNM0	XI0/XI10/net6#7	A3#13	gnd!#268	gnd!
+ g45n1svt	L=4.5e-08	W=1.2e-07
+ AD=1.68e-14	AS=1.68e-14	PD=5.2e-07	PS=5.2e-07
+ fw=1.2e-07 sa=1.4e-07 sb=1.4e-07 sca=9.20059 scb=0.00764836 scc=0.000159521
MXI0/XI10/XI13/MNM0	XI0/XI10/net14#7	B3#20	gnd!#267	gnd!
+ g45n1svt	L=4.5e-08	W=1.2e-07
+ AD=1.68e-14	AS=1.68e-14	PD=5.2e-07	PS=5.2e-07
+ fw=1.2e-07 sa=1.4e-07 sb=1.4e-07 sca=9.20059 scb=0.00764836 scc=0.000159521
MXI0/XI10/MNM3	XI0/XI10/net9	B3#18	gnd!#266	gnd!	g45n1svt
+ L=4.5e-08	W=1.2e-07
+ AD=1.68e-14	AS=1.68e-14	PD=5.2e-07	PS=5.2e-07
+ fw=1.2e-07 sa=1.4e-07 sb=1.4e-07 sca=9.20059 scb=0.00764836 scc=0.000159521
MXI0/XI10/MNM0	XI0/net8#9	XI0/XI10/net6#4	XI0/XI10/net1#2
+ gnd!	g45n1svt	L=4.5e-08	W=1.2e-07
+ AD=1.68e-14	AS=1.68e-14	PD=5.2e-07	PS=5.2e-07
+ fw=1.2e-07 sa=1.4e-07 sb=1.4e-07 sca=9.20059 scb=0.00764836 scc=0.000159521
MXI0/XI10/MNM2	XI0/XI10/net1	XI0/XI10/net14#4	gnd!#265	gnd!
+ g45n1svt	L=4.5e-08	W=1.2e-07
+ AD=1.68e-14	AS=1.68e-14	PD=5.2e-07	PS=5.2e-07
+ fw=1.2e-07 sa=1.4e-07 sb=1.4e-07 sca=9.20059 scb=0.00764836 scc=0.000159521
MXI0/XI10/MNM1	XI0/net8#5	A3#12	XI0/XI10/net9#3	gnd!
+ g45n1svt	L=4.5e-08	W=1.2e-07
+ AD=1.68e-14	AS=1.68e-14	PD=5.2e-07	PS=5.2e-07
+ fw=1.2e-07 sa=1.4e-07 sb=1.4e-07 sca=9.20059 scb=0.00764836 scc=0.000159521
MXI0/XI9/XI12/MNM0	XI0/XI9/net6#7	A2#13	gnd!#283	gnd!
+ g45n1svt	L=4.5e-08	W=1.2e-07
+ AD=1.68e-14	AS=1.68e-14	PD=5.2e-07	PS=5.2e-07
+ fw=1.2e-07 sa=1.4e-07 sb=1.4e-07 sca=9.20059 scb=0.00764836 scc=0.000159521
MXI0/XI9/XI13/MNM0	XI0/XI9/net14#7	B2#20	gnd!#282	gnd!
+ g45n1svt	L=4.5e-08	W=1.2e-07
+ AD=1.68e-14	AS=1.68e-14	PD=5.2e-07	PS=5.2e-07
+ fw=1.2e-07 sa=1.4e-07 sb=1.4e-07 sca=9.20059 scb=0.00764836 scc=0.000159521
MXI0/XI9/MNM3	XI0/XI9/net9	B2#18	gnd!#281	gnd!	g45n1svt
+ L=4.5e-08	W=1.2e-07
+ AD=1.68e-14	AS=1.68e-14	PD=5.2e-07	PS=5.2e-07
+ fw=1.2e-07 sa=1.4e-07 sb=1.4e-07 sca=9.20059 scb=0.00764836 scc=0.000159521
MXI0/XI9/MNM0	XI0/net7#9	XI0/XI9/net6#4	XI0/XI9/net1#2	gnd!
+ g45n1svt	L=4.5e-08	W=1.2e-07
+ AD=1.68e-14	AS=1.68e-14	PD=5.2e-07	PS=5.2e-07
+ fw=1.2e-07 sa=1.4e-07 sb=1.4e-07 sca=9.20059 scb=0.00764836 scc=0.000159521
MXI0/XI9/MNM2	XI0/XI9/net1	XI0/XI9/net14#4	gnd!#280	gnd!
+ g45n1svt	L=4.5e-08	W=1.2e-07
+ AD=1.68e-14	AS=1.68e-14	PD=5.2e-07	PS=5.2e-07
+ fw=1.2e-07 sa=1.4e-07 sb=1.4e-07 sca=9.20059 scb=0.00764836 scc=0.000159521
MXI0/XI9/MNM1	XI0/net7#5	A2#12	XI0/XI9/net9#3	gnd!	g45n1svt
+ L=4.5e-08	W=1.2e-07
+ AD=1.68e-14	AS=1.68e-14	PD=5.2e-07	PS=5.2e-07
+ fw=1.2e-07 sa=1.4e-07 sb=1.4e-07 sca=9.20059 scb=0.00764836 scc=0.000159521
MXI0/XI8/XI12/MNM0	XI0/XI8/net6#7	A1#13	gnd!#298	gnd!
+ g45n1svt	L=4.5e-08	W=1.2e-07
+ AD=1.68e-14	AS=1.68e-14	PD=5.2e-07	PS=5.2e-07
+ fw=1.2e-07 sa=1.4e-07 sb=1.4e-07 sca=9.20059 scb=0.00764836 scc=0.000159521
MXI0/XI8/XI13/MNM0	XI0/XI8/net14#7	B1#20	gnd!#297	gnd!
+ g45n1svt	L=4.5e-08	W=1.2e-07
+ AD=1.68e-14	AS=1.68e-14	PD=5.2e-07	PS=5.2e-07
+ fw=1.2e-07 sa=1.4e-07 sb=1.4e-07 sca=9.20059 scb=0.00764836 scc=0.000159521
MXI0/XI8/MNM3	XI0/XI8/net9	B1#18	gnd!#296	gnd!	g45n1svt
+ L=4.5e-08	W=1.2e-07
+ AD=1.68e-14	AS=1.68e-14	PD=5.2e-07	PS=5.2e-07
+ fw=1.2e-07 sa=1.4e-07 sb=1.4e-07 sca=9.20059 scb=0.00764836 scc=0.000159521
MXI0/XI8/MNM0	XI0/net6#9	XI0/XI8/net6#4	XI0/XI8/net1#2	gnd!
+ g45n1svt	L=4.5e-08	W=1.2e-07
+ AD=1.68e-14	AS=1.68e-14	PD=5.2e-07	PS=5.2e-07
+ fw=1.2e-07 sa=1.4e-07 sb=1.4e-07 sca=9.20059 scb=0.00764836 scc=0.000159521
MXI0/XI8/MNM2	XI0/XI8/net1	XI0/XI8/net14#4	gnd!#295	gnd!
+ g45n1svt	L=4.5e-08	W=1.2e-07
+ AD=1.68e-14	AS=1.68e-14	PD=5.2e-07	PS=5.2e-07
+ fw=1.2e-07 sa=1.4e-07 sb=1.4e-07 sca=9.20059 scb=0.00764836 scc=0.000159521
MXI0/XI8/MNM1	XI0/net6#5	A1#12	XI0/XI8/net9#3	gnd!	g45n1svt
+ L=4.5e-08	W=1.2e-07
+ AD=1.68e-14	AS=1.68e-14	PD=5.2e-07	PS=5.2e-07
+ fw=1.2e-07 sa=1.4e-07 sb=1.4e-07 sca=9.20059 scb=0.00764836 scc=0.000159521
MXI0/XI7/XI12/MNM0	XI0/XI7/net6#7	A0#13	gnd!#313	gnd!
+ g45n1svt	L=4.5e-08	W=1.2e-07
+ AD=1.68e-14	AS=1.68e-14	PD=5.2e-07	PS=5.2e-07
+ fw=1.2e-07 sa=1.4e-07 sb=1.4e-07 sca=9.20059 scb=0.00764836 scc=0.000159521
MXI0/XI7/XI13/MNM0	XI0/XI7/net14#7	B0#20	gnd!#312	gnd!
+ g45n1svt	L=4.5e-08	W=1.2e-07
+ AD=1.68e-14	AS=1.68e-14	PD=5.2e-07	PS=5.2e-07
+ fw=1.2e-07 sa=1.4e-07 sb=1.4e-07 sca=9.20059 scb=0.00764836 scc=0.000159521
MXI0/XI7/MNM3	XI0/XI7/net9	B0#18	gnd!#311	gnd!	g45n1svt
+ L=4.5e-08	W=1.2e-07
+ AD=1.68e-14	AS=1.68e-14	PD=5.2e-07	PS=5.2e-07
+ fw=1.2e-07 sa=1.4e-07 sb=1.4e-07 sca=9.20059 scb=0.00764836 scc=0.000159521
MXI0/XI7/MNM0	XI0/net4#9	XI0/XI7/net6#4	XI0/XI7/net1#2	gnd!
+ g45n1svt	L=4.5e-08	W=1.2e-07
+ AD=1.68e-14	AS=1.68e-14	PD=5.2e-07	PS=5.2e-07
+ fw=1.2e-07 sa=1.4e-07 sb=1.4e-07 sca=9.20059 scb=0.00764836 scc=0.000159521
MXI0/XI7/MNM2	XI0/XI7/net1	XI0/XI7/net14#4	gnd!#310	gnd!
+ g45n1svt	L=4.5e-08	W=1.2e-07
+ AD=1.68e-14	AS=1.68e-14	PD=5.2e-07	PS=5.2e-07
+ fw=1.2e-07 sa=1.4e-07 sb=1.4e-07 sca=9.20059 scb=0.00764836 scc=0.000159521
MXI0/XI7/MNM1	XI0/net4#5	A0#12	XI0/XI7/net9#3	gnd!	g45n1svt
+ L=4.5e-08	W=1.2e-07
+ AD=1.68e-14	AS=1.68e-14	PD=5.2e-07	PS=5.2e-07
+ fw=1.2e-07 sa=1.4e-07 sb=1.4e-07 sca=9.20059 scb=0.00764836 scc=0.000159521
MXI1/XI11/XI2/MPM0	XI1/XI11/net1#8	XI1/net2#6	vdd!#51
+ vdd!	g45p1svt	L=4.5e-08	W=2.4e-07
+ AD=3.36e-14	AS=3.36e-14	PD=7.6e-07	PS=7.6e-07
+ fw=2.4e-07 sa=1.4e-07 sb=1.4e-07 sca=11.7234 scb=0.0101098 scc=0.000278382
MXI1/XI11/MPM3	XI1/XI11/net9	XI1/XI11/net1	vdd!#50	vdd!
+ g45p1svt	L=4.5e-08	W=2.4e-07
+ AD=3.36e-14	AS=3.36e-14	PD=7.6e-07	PS=7.6e-07
+ fw=2.4e-07 sa=1.4e-07 sb=1.4e-07 sca=11.7234 scb=0.0101098 scc=0.000278382
MXI1/XI11/MPM0	XI1/XI11/net4#2	XI1/net2	vdd!#49	vdd!
+ g45p1svt	L=4.5e-08	W=2.4e-07
+ AD=3.36e-14	AS=3.36e-14	PD=7.6e-07	PS=7.6e-07
+ fw=2.4e-07 sa=1.4e-07 sb=1.4e-07 sca=11.7234 scb=0.0101098 scc=0.000278382
MXI1/XI11/MPM1	XI1/XI11/net6#11	XI1/net1	XI1/XI11/net4	vdd!
+ g45p1svt	L=4.5e-08	W=2.4e-07
+ AD=3.36e-14	AS=3.36e-14	PD=7.6e-07	PS=7.6e-07
+ fw=2.4e-07 sa=1.4e-07 sb=1.4e-07 sca=11.7234 scb=0.0101098 scc=0.000278382
MXI1/XI11/MPM2	XI1/XI11/net6#10	net14#11	XI1/XI11/net9#3
+ vdd!	g45p1svt	L=4.5e-08	W=2.4e-07
+ AD=3.36e-14	AS=3.36e-14	PD=7.6e-07	PS=7.6e-07
+ fw=2.4e-07 sa=1.4e-07 sb=1.4e-07 sca=11.7234 scb=0.0101098 scc=0.000278382
MXI1/XI5/XI5/MPM0	XI1/net2#7	XI1/XI5/net1	vdd!#52	vdd!
+ g45p1svt	L=4.5e-08	W=2.4e-07
+ AD=3.36e-14	AS=3.36e-14	PD=7.6e-07	PS=7.6e-07
+ fw=2.4e-07 sa=1.4e-07 sb=1.4e-07 sca=18.2452 scb=0.0177397 scc=0.00150411
MXI1/XI5/XI3/MPM0	XI1/XI5/net2#5	XI1/XI5/net3	vdd!#55	vdd!
+ g45p1svt	L=4.5e-08	W=2.4e-07
+ AD=3.36e-14	AS=3.36e-14	PD=7.6e-07	PS=7.6e-07
+ fw=2.4e-07 sa=1.4e-07 sb=1.4e-07 sca=18.2452 scb=0.0177397 scc=0.00150411
MXI1/XI5/XI4/MPM0	XI1/XI5/net5#5	XI1/XI5/net6	vdd!#58	vdd!
+ g45p1svt	L=4.5e-08	W=2.4e-07
+ AD=3.36e-14	AS=3.36e-14	PD=7.6e-07	PS=7.6e-07
+ fw=2.4e-07 sa=1.4e-07 sb=1.4e-07 sca=18.2452 scb=0.0177397 scc=0.00150411
MXI1/XI5/XI6/MPM0	XI1/XI5/net1#7	XI1/XI5/net2	vdd!#54	vdd!
+ g45p1svt	L=4.5e-08	W=2.4e-07
+ AD=3.84e-14	AS=3.36e-14	PD=8e-07	PS=7.6e-07
+ fw=2.4e-07 sa=1.4e-07 sb=3.45e-07 sca=21.6767 scb=0.0202328 scc=0.0021948
MXI1/XI5/XI6/MPM1	XI1/XI5/net1#7	XI1/XI5/net5#4	vdd!#53	vdd!
+ g45p1svt	L=4.5e-08	W=2.4e-07
+ AD=3.84e-14	AS=3.36e-14	PD=8e-07	PS=7.6e-07
+ fw=2.4e-07 sa=3.45e-07 sb=1.4e-07 sca=21.6767 scb=0.0202328 scc=0.0021948
MXI1/XI5/XI0/MPM1	XI1/XI5/net3#7	XI1/net6	vdd!#57	vdd!
+ g45p1svt	L=4.5e-08	W=2.4e-07
+ AD=3.84e-14	AS=3.36e-14	PD=8e-07	PS=7.6e-07
+ fw=2.4e-07 sa=1.4e-07 sb=3.45e-07 sca=21.6767 scb=0.0202328 scc=0.0021948
MXI1/XI5/XI0/MPM0	XI1/XI5/net3#7	XI1/net4#4	vdd!#56	vdd!
+ g45p1svt	L=4.5e-08	W=2.4e-07
+ AD=3.84e-14	AS=3.36e-14	PD=8e-07	PS=7.6e-07
+ fw=2.4e-07 sa=3.45e-07 sb=1.4e-07 sca=21.6767 scb=0.0202328 scc=0.0021948
MXI1/XI5/XI1/MPM1	XI1/XI5/net6#7	XI1/net8	vdd!#60	vdd!
+ g45p1svt	L=4.5e-08	W=2.4e-07
+ AD=3.84e-14	AS=3.36e-14	PD=8e-07	PS=7.6e-07
+ fw=2.4e-07 sa=1.4e-07 sb=3.45e-07 sca=21.6767 scb=0.0202328 scc=0.0021948
MXI1/XI5/XI1/MPM0	XI1/XI5/net6#7	XI1/net7#4	vdd!#59	vdd!
+ g45p1svt	L=4.5e-08	W=2.4e-07
+ AD=3.84e-14	AS=3.36e-14	PD=8e-07	PS=7.6e-07
+ fw=2.4e-07 sa=3.45e-07 sb=1.4e-07 sca=21.6767 scb=0.0202328 scc=0.0021948
MXI1/XI0/XI3/XI9/MPM0	XI1/XI0/XI3/XI9/net4	XI1/XI0/XI3/net2#5	vdd!#66
+ vdd!	g45p1svt	L=4.5e-08	W=2.4e-07
+ AD=3.36e-14	AS=3.36e-14	PD=7.6e-07	PS=7.6e-07
+ fw=2.4e-07 sa=1.4e-07 sb=1.4e-07 sca=10.2959 scb=0.00764059 scc=8.89329e-05
MXI1/XI0/XI3/XI9/MPM3	S7#6	XI1/XI0/XI3/XI9/net2	XI1/XI0/XI3/XI9/net4#3
+ vdd!	g45p1svt	L=4.5e-08	W=2.4e-07
+ AD=3.36e-14	AS=3.36e-14	PD=7.6e-07	PS=7.6e-07
+ fw=2.4e-07 sa=1.4e-07 sb=1.4e-07 sca=10.2959 scb=0.00764059 scc=8.89329e-05
MXI1/XI0/XI3/XI9/MPM1	S7#5	XI1/XI0/XI3/XI9/net6	XI1/XI0/XI3/XI9/net4#5
+ vdd!	g45p1svt	L=4.5e-08	W=2.4e-07
+ AD=3.36e-14	AS=3.36e-14	PD=7.6e-07	PS=7.6e-07
+ fw=2.4e-07 sa=1.4e-07 sb=1.4e-07 sca=10.2959 scb=0.00764059 scc=8.89329e-05
MXI1/XI0/XI3/XI9/MPM2	XI1/XI0/XI3/XI9/net4#7	XI1/XI0/net1#5	vdd!#65
+ vdd!	g45p1svt	L=4.5e-08	W=2.4e-07
+ AD=3.36e-14	AS=3.36e-14	PD=7.6e-07	PS=7.6e-07
+ fw=2.4e-07 sa=1.4e-07 sb=1.4e-07 sca=10.2959 scb=0.00764059 scc=8.89329e-05
MXI1/XI0/XI3/XI0/MPM2	XI1/XI0/XI3/XI0/net4	B7#1	vdd!#76	vdd!
+ g45p1svt	L=4.5e-08	W=2.4e-07
+ AD=3.36e-14	AS=3.36e-14	PD=7.6e-07	PS=7.6e-07
+ fw=2.4e-07 sa=1.4e-07 sb=1.4e-07 sca=10.2959 scb=0.00764059 scc=8.89329e-05
MXI1/XI0/XI3/XI0/MPM1	XI1/XI0/XI3/net2#21	XI1/XI0/XI3/XI0/net6
+ XI1/XI0/XI3/XI0/net4#3	vdd!	g45p1svt	L=4.5e-08
+ W=2.4e-07
+ AD=3.36e-14	AS=3.36e-14	PD=7.6e-07	PS=7.6e-07
+ fw=2.4e-07 sa=1.4e-07 sb=1.4e-07 sca=10.2959 scb=0.00764059 scc=8.89329e-05
MXI1/XI0/XI3/XI0/MPM3	XI1/XI0/XI3/net2#20	XI1/XI0/XI3/XI0/net2
+ XI1/XI0/XI3/XI0/net4#5	vdd!	g45p1svt	L=4.5e-08
+ W=2.4e-07
+ AD=3.36e-14	AS=3.36e-14	PD=7.6e-07	PS=7.6e-07
+ fw=2.4e-07 sa=1.4e-07 sb=1.4e-07 sca=10.2959 scb=0.00764059 scc=8.89329e-05
MXI1/XI0/XI3/XI0/MPM0	XI1/XI0/XI3/XI0/net4#7	A7#1	vdd!#75	vdd!
+ g45p1svt	L=4.5e-08	W=2.4e-07
+ AD=3.36e-14	AS=3.36e-14	PD=7.6e-07	PS=7.6e-07
+ fw=2.4e-07 sa=1.4e-07 sb=1.4e-07 sca=10.2959 scb=0.00764059 scc=8.89329e-05
MXI1/XI0/XI3/XI2/MPM1	XI1/XI0/XI3/net6#7	XI1/XI0/XI3/net2	vdd!#74
+ vdd!	g45p1svt	L=4.5e-08	W=4.8e-07
+ AD=7.68e-14	AS=6.72e-14	PD=1.28e-06	PS=1.24e-06
+ fw=4.8e-07 sa=1.4e-07 sb=3.45e-07 sca=15.9511 scb=0.0138709 scc=0.00113792
MXI1/XI0/XI3/XI2/MPM0	XI1/XI0/XI3/net6#7	XI1/XI0/net1#4	vdd!#73
+ vdd!	g45p1svt	L=4.5e-08	W=4.8e-07
+ AD=7.68e-14	AS=6.72e-14	PD=1.28e-06	PS=1.24e-06
+ fw=4.8e-07 sa=3.45e-07 sb=1.4e-07 sca=15.9511 scb=0.0138709 scc=0.00113792
MXI1/XI0/XI3/XI3/MPM1	XI1/net1#7	XI1/XI0/XI3/net1	vdd!#70
+ vdd!	g45p1svt	L=4.5e-08	W=2.4e-07
+ AD=3.84e-14	AS=3.36e-14	PD=8e-07	PS=7.6e-07
+ fw=2.4e-07 sa=1.4e-07 sb=3.45e-07 sca=21.6767 scb=0.0202328 scc=0.0021948
MXI1/XI0/XI3/XI3/MPM0	XI1/net1#7	XI1/XI0/XI3/net6#4	vdd!#69
+ vdd!	g45p1svt	L=4.5e-08	W=2.4e-07
+ AD=3.84e-14	AS=3.36e-14	PD=8e-07	PS=7.6e-07
+ fw=2.4e-07 sa=3.45e-07 sb=1.4e-07 sca=21.6767 scb=0.0202328 scc=0.0021948
MXI1/XI0/XI3/XI4/MPM0	XI1/XI0/XI3/net1#7	B7#9	vdd!#72	vdd!
+ g45p1svt	L=4.5e-08	W=2.4e-07
+ AD=3.84e-14	AS=3.36e-14	PD=8e-07	PS=7.6e-07
+ fw=2.4e-07 sa=1.4e-07 sb=3.45e-07 sca=21.6767 scb=0.0202328 scc=0.0021948
MXI1/XI0/XI3/XI4/MPM1	XI1/XI0/XI3/net1#7	A7#10	vdd!#71	vdd!
+ g45p1svt	L=4.5e-08	W=2.4e-07
+ AD=3.84e-14	AS=3.36e-14	PD=8e-07	PS=7.6e-07
+ fw=2.4e-07 sa=3.45e-07 sb=1.4e-07 sca=21.6767 scb=0.0202328 scc=0.0021948
MXI1/XI0/XI3/XI9/XI13/MPM0	XI1/XI0/XI3/XI9/net2#8	XI1/XI0/net1#10
+ vdd!#68	vdd!	g45p1svt	L=4.5e-08	W=2.4e-07
+ AD=3.36e-14	AS=3.36e-14	PD=7.6e-07	PS=7.6e-07
+ fw=2.4e-07 sa=1.4e-07 sb=1.4e-07 sca=10.327 scb=0.00769864 scc=9.24832e-05
MXI1/XI0/XI3/XI9/XI12/MPM0	XI1/XI0/XI3/XI9/net6#8	XI1/XI0/XI3/net2#11
+ vdd!#67	vdd!	g45p1svt	L=4.5e-08	W=2.4e-07
+ AD=3.36e-14	AS=3.36e-14	PD=7.6e-07	PS=7.6e-07
+ fw=2.4e-07 sa=1.4e-07 sb=1.4e-07 sca=10.327 scb=0.00769864 scc=9.24832e-05
MXI1/XI0/XI2/XI9/MPM0	XI1/XI0/XI2/XI9/net4	XI1/XI0/XI2/net2#5	vdd!#86
+ vdd!	g45p1svt	L=4.5e-08	W=2.4e-07
+ AD=3.36e-14	AS=3.36e-14	PD=7.6e-07	PS=7.6e-07
+ fw=2.4e-07 sa=1.4e-07 sb=1.4e-07 sca=10.2959 scb=0.00764059 scc=8.89329e-05
MXI1/XI0/XI2/XI9/MPM3	S6#6	XI1/XI0/XI2/XI9/net2	XI1/XI0/XI2/XI9/net4#3
+ vdd!	g45p1svt	L=4.5e-08	W=2.4e-07
+ AD=3.36e-14	AS=3.36e-14	PD=7.6e-07	PS=7.6e-07
+ fw=2.4e-07 sa=1.4e-07 sb=1.4e-07 sca=10.2959 scb=0.00764059 scc=8.89329e-05
MXI1/XI0/XI2/XI9/MPM1	S6#5	XI1/XI0/XI2/XI9/net6	XI1/XI0/XI2/XI9/net4#5
+ vdd!	g45p1svt	L=4.5e-08	W=2.4e-07
+ AD=3.36e-14	AS=3.36e-14	PD=7.6e-07	PS=7.6e-07
+ fw=2.4e-07 sa=1.4e-07 sb=1.4e-07 sca=10.2959 scb=0.00764059 scc=8.89329e-05
MXI1/XI0/XI2/XI9/MPM2	XI1/XI0/XI2/XI9/net4#7	XI1/XI0/net10#5	vdd!#84
+ vdd!	g45p1svt	L=4.5e-08	W=2.4e-07
+ AD=3.36e-14	AS=3.36e-14	PD=7.6e-07	PS=7.6e-07
+ fw=2.4e-07 sa=1.4e-07 sb=1.4e-07 sca=10.2959 scb=0.00764059 scc=8.89329e-05
MXI1/XI0/XI2/XI0/MPM2	XI1/XI0/XI2/XI0/net4	B6#1	vdd!#108	vdd!
+ g45p1svt	L=4.5e-08	W=2.4e-07
+ AD=3.36e-14	AS=3.36e-14	PD=7.6e-07	PS=7.6e-07
+ fw=2.4e-07 sa=1.4e-07 sb=1.4e-07 sca=10.2959 scb=0.00764059 scc=8.89329e-05
MXI1/XI0/XI2/XI0/MPM1	XI1/XI0/XI2/net2#21	XI1/XI0/XI2/XI0/net6
+ XI1/XI0/XI2/XI0/net4#3	vdd!	g45p1svt	L=4.5e-08
+ W=2.4e-07
+ AD=3.36e-14	AS=3.36e-14	PD=7.6e-07	PS=7.6e-07
+ fw=2.4e-07 sa=1.4e-07 sb=1.4e-07 sca=10.2959 scb=0.00764059 scc=8.89329e-05
MXI1/XI0/XI2/XI0/MPM3	XI1/XI0/XI2/net2#20	XI1/XI0/XI2/XI0/net2
+ XI1/XI0/XI2/XI0/net4#5	vdd!	g45p1svt	L=4.5e-08
+ W=2.4e-07
+ AD=3.36e-14	AS=3.36e-14	PD=7.6e-07	PS=7.6e-07
+ fw=2.4e-07 sa=1.4e-07 sb=1.4e-07 sca=10.2959 scb=0.00764059 scc=8.89329e-05
MXI1/XI0/XI2/XI0/MPM0	XI1/XI0/XI2/XI0/net4#7	A6#1	vdd!#105	vdd!
+ g45p1svt	L=4.5e-08	W=2.4e-07
+ AD=3.36e-14	AS=3.36e-14	PD=7.6e-07	PS=7.6e-07
+ fw=2.4e-07 sa=1.4e-07 sb=1.4e-07 sca=10.2959 scb=0.00764059 scc=8.89329e-05
MXI1/XI0/XI2/XI2/MPM1	XI1/XI0/XI2/net6#7	XI1/XI0/XI2/net2
+ vdd!#103	vdd!	g45p1svt	L=4.5e-08	W=4.8e-07
+ AD=7.68e-14	AS=6.72e-14	PD=1.28e-06	PS=1.24e-06
+ fw=4.8e-07 sa=1.4e-07 sb=3.45e-07 sca=15.9511 scb=0.0138709 scc=0.00113792
MXI1/XI0/XI2/XI2/MPM0	XI1/XI0/XI2/net6#7	XI1/XI0/net10#4
+ vdd!#101	vdd!	g45p1svt	L=4.5e-08	W=4.8e-07
+ AD=7.68e-14	AS=6.72e-14	PD=1.28e-06	PS=1.24e-06
+ fw=4.8e-07 sa=3.45e-07 sb=1.4e-07 sca=15.9511 scb=0.0138709 scc=0.00113792
MXI1/XI0/XI2/XI3/MPM1	XI1/XI0/net1#13	XI1/XI0/XI2/net1	vdd!#95
+ vdd!	g45p1svt	L=4.5e-08	W=2.4e-07
+ AD=3.84e-14	AS=3.36e-14	PD=8e-07	PS=7.6e-07
+ fw=2.4e-07 sa=1.4e-07 sb=3.45e-07 sca=21.6767 scb=0.0202328 scc=0.0021948
MXI1/XI0/XI2/XI3/MPM0	XI1/XI0/net1#13	XI1/XI0/XI2/net6#4	vdd!#93
+ vdd!	g45p1svt	L=4.5e-08	W=2.4e-07
+ AD=3.84e-14	AS=3.36e-14	PD=8e-07	PS=7.6e-07
+ fw=2.4e-07 sa=3.45e-07 sb=1.4e-07 sca=21.6767 scb=0.0202328 scc=0.0021948
MXI1/XI0/XI2/XI4/MPM0	XI1/XI0/XI2/net1#7	B6#9	vdd!#99	vdd!
+ g45p1svt	L=4.5e-08	W=2.4e-07
+ AD=3.84e-14	AS=3.36e-14	PD=8e-07	PS=7.6e-07
+ fw=2.4e-07 sa=1.4e-07 sb=3.45e-07 sca=21.6767 scb=0.0202328 scc=0.0021948
MXI1/XI0/XI2/XI4/MPM1	XI1/XI0/XI2/net1#7	A6#10	vdd!#97	vdd!
+ g45p1svt	L=4.5e-08	W=2.4e-07
+ AD=3.84e-14	AS=3.36e-14	PD=8e-07	PS=7.6e-07
+ fw=2.4e-07 sa=3.45e-07 sb=1.4e-07 sca=21.6767 scb=0.0202328 scc=0.0021948
MXI1/XI0/XI2/XI9/XI13/MPM0	XI1/XI0/XI2/XI9/net2#8	XI1/XI0/net10#10
+ vdd!#91	vdd!	g45p1svt	L=4.5e-08	W=2.4e-07
+ AD=3.36e-14	AS=3.36e-14	PD=7.6e-07	PS=7.6e-07
+ fw=2.4e-07 sa=1.4e-07 sb=1.4e-07 sca=10.327 scb=0.00769864 scc=9.24832e-05
MXI1/XI0/XI2/XI9/XI12/MPM0	XI1/XI0/XI2/XI9/net6#8	XI1/XI0/XI2/net2#11
+ vdd!#89	vdd!	g45p1svt	L=4.5e-08	W=2.4e-07
+ AD=3.36e-14	AS=3.36e-14	PD=7.6e-07	PS=7.6e-07
+ fw=2.4e-07 sa=1.4e-07 sb=1.4e-07 sca=10.327 scb=0.00769864 scc=9.24832e-05
MXI1/XI0/XI1/XI9/MPM0	XI1/XI0/XI1/XI9/net4	XI1/XI0/XI1/net2#5
+ vdd!#127	vdd!	g45p1svt	L=4.5e-08	W=2.4e-07
+ AD=3.36e-14	AS=3.36e-14	PD=7.6e-07	PS=7.6e-07
+ fw=2.4e-07 sa=1.4e-07 sb=1.4e-07 sca=10.2959 scb=0.00764059 scc=8.89329e-05
MXI1/XI0/XI1/XI9/MPM3	S5#6	XI1/XI0/XI1/XI9/net2	XI1/XI0/XI1/XI9/net4#3
+ vdd!	g45p1svt	L=4.5e-08	W=2.4e-07
+ AD=3.36e-14	AS=3.36e-14	PD=7.6e-07	PS=7.6e-07
+ fw=2.4e-07 sa=1.4e-07 sb=1.4e-07 sca=10.2959 scb=0.00764059 scc=8.89329e-05
MXI1/XI0/XI1/XI9/MPM1	S5#5	XI1/XI0/XI1/XI9/net6	XI1/XI0/XI1/XI9/net4#5
+ vdd!	g45p1svt	L=4.5e-08	W=2.4e-07
+ AD=3.36e-14	AS=3.36e-14	PD=7.6e-07	PS=7.6e-07
+ fw=2.4e-07 sa=1.4e-07 sb=1.4e-07 sca=10.2959 scb=0.00764059 scc=8.89329e-05
MXI1/XI0/XI1/XI9/MPM2	XI1/XI0/XI1/XI9/net4#7	XI1/XI0/net5#5	vdd!#124
+ vdd!	g45p1svt	L=4.5e-08	W=2.4e-07
+ AD=3.36e-14	AS=3.36e-14	PD=7.6e-07	PS=7.6e-07
+ fw=2.4e-07 sa=1.4e-07 sb=1.4e-07 sca=10.2959 scb=0.00764059 scc=8.89329e-05
MXI1/XI0/XI1/XI0/MPM2	XI1/XI0/XI1/XI0/net4	B5#1	vdd!#147	vdd!
+ g45p1svt	L=4.5e-08	W=2.4e-07
+ AD=3.36e-14	AS=3.36e-14	PD=7.6e-07	PS=7.6e-07
+ fw=2.4e-07 sa=1.4e-07 sb=1.4e-07 sca=10.2959 scb=0.00764059 scc=8.89329e-05
MXI1/XI0/XI1/XI0/MPM1	XI1/XI0/XI1/net2#21	XI1/XI0/XI1/XI0/net6
+ XI1/XI0/XI1/XI0/net4#3	vdd!	g45p1svt	L=4.5e-08
+ W=2.4e-07
+ AD=3.36e-14	AS=3.36e-14	PD=7.6e-07	PS=7.6e-07
+ fw=2.4e-07 sa=1.4e-07 sb=1.4e-07 sca=10.2959 scb=0.00764059 scc=8.89329e-05
MXI1/XI0/XI1/XI0/MPM3	XI1/XI0/XI1/net2#20	XI1/XI0/XI1/XI0/net2
+ XI1/XI0/XI1/XI0/net4#5	vdd!	g45p1svt	L=4.5e-08
+ W=2.4e-07
+ AD=3.36e-14	AS=3.36e-14	PD=7.6e-07	PS=7.6e-07
+ fw=2.4e-07 sa=1.4e-07 sb=1.4e-07 sca=10.2959 scb=0.00764059 scc=8.89329e-05
MXI1/XI0/XI1/XI0/MPM0	XI1/XI0/XI1/XI0/net4#7	A5#1	vdd!#145	vdd!
+ g45p1svt	L=4.5e-08	W=2.4e-07
+ AD=3.36e-14	AS=3.36e-14	PD=7.6e-07	PS=7.6e-07
+ fw=2.4e-07 sa=1.4e-07 sb=1.4e-07 sca=10.2959 scb=0.00764059 scc=8.89329e-05
MXI1/XI0/XI1/XI2/MPM1	XI1/XI0/XI1/net6#7	XI1/XI0/XI1/net2
+ vdd!#143	vdd!	g45p1svt	L=4.5e-08	W=4.8e-07
+ AD=7.68e-14	AS=6.72e-14	PD=1.28e-06	PS=1.24e-06
+ fw=4.8e-07 sa=1.4e-07 sb=3.45e-07 sca=15.9511 scb=0.0138709 scc=0.00113792
MXI1/XI0/XI1/XI2/MPM0	XI1/XI0/XI1/net6#7	XI1/XI0/net5#4	vdd!#141
+ vdd!	g45p1svt	L=4.5e-08	W=4.8e-07
+ AD=7.68e-14	AS=6.72e-14	PD=1.28e-06	PS=1.24e-06
+ fw=4.8e-07 sa=3.45e-07 sb=1.4e-07 sca=15.9511 scb=0.0138709 scc=0.00113792
MXI1/XI0/XI1/XI3/MPM1	XI1/XI0/net10#13	XI1/XI0/XI1/net1
+ vdd!#135	vdd!	g45p1svt	L=4.5e-08	W=2.4e-07
+ AD=3.84e-14	AS=3.36e-14	PD=8e-07	PS=7.6e-07
+ fw=2.4e-07 sa=1.4e-07 sb=3.45e-07 sca=21.6767 scb=0.0202328 scc=0.0021948
MXI1/XI0/XI1/XI3/MPM0	XI1/XI0/net10#13	XI1/XI0/XI1/net6#4
+ vdd!#133	vdd!	g45p1svt	L=4.5e-08	W=2.4e-07
+ AD=3.84e-14	AS=3.36e-14	PD=8e-07	PS=7.6e-07
+ fw=2.4e-07 sa=3.45e-07 sb=1.4e-07 sca=21.6767 scb=0.0202328 scc=0.0021948
MXI1/XI0/XI1/XI4/MPM0	XI1/XI0/XI1/net1#7	B5#9	vdd!#139	vdd!
+ g45p1svt	L=4.5e-08	W=2.4e-07
+ AD=3.84e-14	AS=3.36e-14	PD=8e-07	PS=7.6e-07
+ fw=2.4e-07 sa=1.4e-07 sb=3.45e-07 sca=21.6767 scb=0.0202328 scc=0.0021948
MXI1/XI0/XI1/XI4/MPM1	XI1/XI0/XI1/net1#7	A5#10	vdd!#137	vdd!
+ g45p1svt	L=4.5e-08	W=2.4e-07
+ AD=3.84e-14	AS=3.36e-14	PD=8e-07	PS=7.6e-07
+ fw=2.4e-07 sa=3.45e-07 sb=1.4e-07 sca=21.6767 scb=0.0202328 scc=0.0021948
MXI1/XI0/XI1/XI9/XI13/MPM0	XI1/XI0/XI1/XI9/net2#8	XI1/XI0/net5#10
+ vdd!#131	vdd!	g45p1svt	L=4.5e-08	W=2.4e-07
+ AD=3.36e-14	AS=3.36e-14	PD=7.6e-07	PS=7.6e-07
+ fw=2.4e-07 sa=1.4e-07 sb=1.4e-07 sca=10.327 scb=0.00769864 scc=9.24832e-05
MXI1/XI0/XI1/XI9/XI12/MPM0	XI1/XI0/XI1/XI9/net6#8	XI1/XI0/XI1/net2#11
+ vdd!#129	vdd!	g45p1svt	L=4.5e-08	W=2.4e-07
+ AD=3.36e-14	AS=3.36e-14	PD=7.6e-07	PS=7.6e-07
+ fw=2.4e-07 sa=1.4e-07 sb=1.4e-07 sca=10.327 scb=0.00769864 scc=9.24832e-05
MXI1/XI0/XI0/XI9/MPM0	XI1/XI0/XI0/XI9/net4	XI1/XI0/XI0/net2#5
+ vdd!#164	vdd!	g45p1svt	L=4.5e-08	W=2.4e-07
+ AD=3.36e-14	AS=3.36e-14	PD=7.6e-07	PS=7.6e-07
+ fw=2.4e-07 sa=1.4e-07 sb=1.4e-07 sca=10.2959 scb=0.00764059 scc=8.89329e-05
MXI1/XI0/XI0/XI9/MPM3	S4#6	XI1/XI0/XI0/XI9/net2	XI1/XI0/XI0/XI9/net4#3
+ vdd!	g45p1svt	L=4.5e-08	W=2.4e-07
+ AD=3.36e-14	AS=3.36e-14	PD=7.6e-07	PS=7.6e-07
+ fw=2.4e-07 sa=1.4e-07 sb=1.4e-07 sca=10.2959 scb=0.00764059 scc=8.89329e-05
MXI1/XI0/XI0/XI9/MPM1	S4#5	XI1/XI0/XI0/XI9/net6	XI1/XI0/XI0/XI9/net4#5
+ vdd!	g45p1svt	L=4.5e-08	W=2.4e-07
+ AD=3.36e-14	AS=3.36e-14	PD=7.6e-07	PS=7.6e-07
+ fw=2.4e-07 sa=1.4e-07 sb=1.4e-07 sca=10.2959 scb=0.00764059 scc=8.89329e-05
MXI1/XI0/XI0/XI9/MPM2	XI1/XI0/XI0/XI9/net4#7	net14#5	vdd!#161
+ vdd!	g45p1svt	L=4.5e-08	W=2.4e-07
+ AD=3.36e-14	AS=3.36e-14	PD=7.6e-07	PS=7.6e-07
+ fw=2.4e-07 sa=1.4e-07 sb=1.4e-07 sca=10.2959 scb=0.00764059 scc=8.89329e-05
MXI1/XI0/XI0/XI0/MPM2	XI1/XI0/XI0/XI0/net4	B4#1	vdd!#186	vdd!
+ g45p1svt	L=4.5e-08	W=2.4e-07
+ AD=3.36e-14	AS=3.36e-14	PD=7.6e-07	PS=7.6e-07
+ fw=2.4e-07 sa=1.4e-07 sb=1.4e-07 sca=10.2959 scb=0.00764059 scc=8.89329e-05
MXI1/XI0/XI0/XI0/MPM1	XI1/XI0/XI0/net2#21	XI1/XI0/XI0/XI0/net6
+ XI1/XI0/XI0/XI0/net4#3	vdd!	g45p1svt	L=4.5e-08
+ W=2.4e-07
+ AD=3.36e-14	AS=3.36e-14	PD=7.6e-07	PS=7.6e-07
+ fw=2.4e-07 sa=1.4e-07 sb=1.4e-07 sca=10.2959 scb=0.00764059 scc=8.89329e-05
MXI1/XI0/XI0/XI0/MPM3	XI1/XI0/XI0/net2#20	XI1/XI0/XI0/XI0/net2
+ XI1/XI0/XI0/XI0/net4#5	vdd!	g45p1svt	L=4.5e-08
+ W=2.4e-07
+ AD=3.36e-14	AS=3.36e-14	PD=7.6e-07	PS=7.6e-07
+ fw=2.4e-07 sa=1.4e-07 sb=1.4e-07 sca=10.2959 scb=0.00764059 scc=8.89329e-05
MXI1/XI0/XI0/XI0/MPM0	XI1/XI0/XI0/XI0/net4#7	A4#1	vdd!#184	vdd!
+ g45p1svt	L=4.5e-08	W=2.4e-07
+ AD=3.36e-14	AS=3.36e-14	PD=7.6e-07	PS=7.6e-07
+ fw=2.4e-07 sa=1.4e-07 sb=1.4e-07 sca=10.2959 scb=0.00764059 scc=8.89329e-05
MXI1/XI0/XI0/XI2/MPM1	XI1/XI0/XI0/net6#7	XI1/XI0/XI0/net2
+ vdd!#182	vdd!	g45p1svt	L=4.5e-08	W=4.8e-07
+ AD=7.68e-14	AS=6.72e-14	PD=1.28e-06	PS=1.24e-06
+ fw=4.8e-07 sa=1.4e-07 sb=3.45e-07 sca=15.9511 scb=0.0138709 scc=0.00113792
MXI1/XI0/XI0/XI2/MPM0	XI1/XI0/XI0/net6#7	net14#4	vdd!#179
+ vdd!	g45p1svt	L=4.5e-08	W=4.8e-07
+ AD=7.68e-14	AS=6.72e-14	PD=1.28e-06	PS=1.24e-06
+ fw=4.8e-07 sa=3.45e-07 sb=1.4e-07 sca=15.9511 scb=0.0138709 scc=0.00113792
MXI1/XI0/XI0/XI3/MPM1	XI1/XI0/net5#13	XI1/XI0/XI0/net1
+ vdd!#173	vdd!	g45p1svt	L=4.5e-08	W=2.4e-07
+ AD=3.84e-14	AS=3.36e-14	PD=8e-07	PS=7.6e-07
+ fw=2.4e-07 sa=1.4e-07 sb=3.45e-07 sca=21.6767 scb=0.0202328 scc=0.0021948
MXI1/XI0/XI0/XI3/MPM0	XI1/XI0/net5#13	XI1/XI0/XI0/net6#4
+ vdd!#171	vdd!	g45p1svt	L=4.5e-08	W=2.4e-07
+ AD=3.84e-14	AS=3.36e-14	PD=8e-07	PS=7.6e-07
+ fw=2.4e-07 sa=3.45e-07 sb=1.4e-07 sca=21.6767 scb=0.0202328 scc=0.0021948
MXI1/XI0/XI0/XI4/MPM0	XI1/XI0/XI0/net1#7	B4#9	vdd!#177	vdd!
+ g45p1svt	L=4.5e-08	W=2.4e-07
+ AD=3.84e-14	AS=3.36e-14	PD=8e-07	PS=7.6e-07
+ fw=2.4e-07 sa=1.4e-07 sb=3.45e-07 sca=21.6767 scb=0.0202328 scc=0.0021948
MXI1/XI0/XI0/XI4/MPM1	XI1/XI0/XI0/net1#7	A4#10	vdd!#175	vdd!
+ g45p1svt	L=4.5e-08	W=2.4e-07
+ AD=3.84e-14	AS=3.36e-14	PD=8e-07	PS=7.6e-07
+ fw=2.4e-07 sa=3.45e-07 sb=1.4e-07 sca=21.6767 scb=0.0202328 scc=0.0021948
MXI1/XI0/XI0/XI9/XI13/MPM0	XI1/XI0/XI0/XI9/net2#8	net14#10
+ vdd!#168	vdd!	g45p1svt	L=4.5e-08	W=2.4e-07
+ AD=3.36e-14	AS=3.36e-14	PD=7.6e-07	PS=7.6e-07
+ fw=2.4e-07 sa=1.4e-07 sb=1.4e-07 sca=10.327 scb=0.00769864 scc=9.24832e-05
MXI1/XI0/XI0/XI9/XI12/MPM0	XI1/XI0/XI0/XI9/net6#8	XI1/XI0/XI0/net2#11
+ vdd!#166	vdd!	g45p1svt	L=4.5e-08	W=2.4e-07
+ AD=3.36e-14	AS=3.36e-14	PD=7.6e-07	PS=7.6e-07
+ fw=2.4e-07 sa=1.4e-07 sb=1.4e-07 sca=10.327 scb=0.00769864 scc=9.24832e-05
MXI1/XI10/MPM2	XI1/XI10/net4	B7#13	vdd!#62	vdd!	g45p1svt
+ L=4.5e-08	W=2.4e-07
+ AD=3.36e-14	AS=3.36e-14	PD=7.6e-07	PS=7.6e-07
+ fw=2.4e-07 sa=1.4e-07 sb=1.4e-07 sca=10.2959 scb=0.00764059 scc=8.89329e-05
MXI1/XI10/MPM1	XI1/net8#12	XI1/XI10/net6	XI1/XI10/net4#3	vdd!
+ g45p1svt	L=4.5e-08	W=2.4e-07
+ AD=3.36e-14	AS=3.36e-14	PD=7.6e-07	PS=7.6e-07
+ fw=2.4e-07 sa=1.4e-07 sb=1.4e-07 sca=10.2959 scb=0.00764059 scc=8.89329e-05
MXI1/XI10/MPM3	XI1/net8#11	XI1/XI10/net14	XI1/XI10/net4#5	vdd!
+ g45p1svt	L=4.5e-08	W=2.4e-07
+ AD=3.36e-14	AS=3.36e-14	PD=7.6e-07	PS=7.6e-07
+ fw=2.4e-07 sa=1.4e-07 sb=1.4e-07 sca=10.2959 scb=0.00764059 scc=8.89329e-05
MXI1/XI10/MPM0	XI1/XI10/net4#7	A7#11	vdd!#61	vdd!
+ g45p1svt	L=4.5e-08	W=2.4e-07
+ AD=3.36e-14	AS=3.36e-14	PD=7.6e-07	PS=7.6e-07
+ fw=2.4e-07 sa=1.4e-07 sb=1.4e-07 sca=10.2959 scb=0.00764059 scc=8.89329e-05
MXI1/XI9/MPM2	XI1/XI9/net4	B6#13	vdd!#80	vdd!	g45p1svt
+ L=4.5e-08	W=2.4e-07
+ AD=3.36e-14	AS=3.36e-14	PD=7.6e-07	PS=7.6e-07
+ fw=2.4e-07 sa=1.4e-07 sb=1.4e-07 sca=10.2959 scb=0.00764059 scc=8.89329e-05
MXI1/XI9/MPM1	XI1/net7#12	XI1/XI9/net6	XI1/XI9/net4#3	vdd!
+ g45p1svt	L=4.5e-08	W=2.4e-07
+ AD=3.36e-14	AS=3.36e-14	PD=7.6e-07	PS=7.6e-07
+ fw=2.4e-07 sa=1.4e-07 sb=1.4e-07 sca=10.2959 scb=0.00764059 scc=8.89329e-05
MXI1/XI9/MPM3	XI1/net7#11	XI1/XI9/net14	XI1/XI9/net4#5	vdd!
+ g45p1svt	L=4.5e-08	W=2.4e-07
+ AD=3.36e-14	AS=3.36e-14	PD=7.6e-07	PS=7.6e-07
+ fw=2.4e-07 sa=1.4e-07 sb=1.4e-07 sca=10.2959 scb=0.00764059 scc=8.89329e-05
MXI1/XI9/MPM0	XI1/XI9/net4#7	A6#11	vdd!#79	vdd!	g45p1svt
+ L=4.5e-08	W=2.4e-07
+ AD=3.36e-14	AS=3.36e-14	PD=7.6e-07	PS=7.6e-07
+ fw=2.4e-07 sa=1.4e-07 sb=1.4e-07 sca=10.2959 scb=0.00764059 scc=8.89329e-05
MXI1/XI8/MPM2	XI1/XI8/net4	B5#13	vdd!#117	vdd!	g45p1svt
+ L=4.5e-08	W=2.4e-07
+ AD=3.36e-14	AS=3.36e-14	PD=7.6e-07	PS=7.6e-07
+ fw=2.4e-07 sa=1.4e-07 sb=1.4e-07 sca=10.2959 scb=0.00764059 scc=8.89329e-05
MXI1/XI8/MPM1	XI1/net6#12	XI1/XI8/net6	XI1/XI8/net4#3	vdd!
+ g45p1svt	L=4.5e-08	W=2.4e-07
+ AD=3.36e-14	AS=3.36e-14	PD=7.6e-07	PS=7.6e-07
+ fw=2.4e-07 sa=1.4e-07 sb=1.4e-07 sca=10.2959 scb=0.00764059 scc=8.89329e-05
MXI1/XI8/MPM3	XI1/net6#11	XI1/XI8/net14	XI1/XI8/net4#5	vdd!
+ g45p1svt	L=4.5e-08	W=2.4e-07
+ AD=3.36e-14	AS=3.36e-14	PD=7.6e-07	PS=7.6e-07
+ fw=2.4e-07 sa=1.4e-07 sb=1.4e-07 sca=10.2959 scb=0.00764059 scc=8.89329e-05
MXI1/XI8/MPM0	XI1/XI8/net4#7	A5#11	vdd!#115	vdd!	g45p1svt
+ L=4.5e-08	W=2.4e-07
+ AD=3.36e-14	AS=3.36e-14	PD=7.6e-07	PS=7.6e-07
+ fw=2.4e-07 sa=1.4e-07 sb=1.4e-07 sca=10.2959 scb=0.00764059 scc=8.89329e-05
MXI1/XI7/MPM2	XI1/XI7/net4	B4#13	vdd!#155	vdd!	g45p1svt
+ L=4.5e-08	W=2.4e-07
+ AD=3.36e-14	AS=3.36e-14	PD=7.6e-07	PS=7.6e-07
+ fw=2.4e-07 sa=1.4e-07 sb=1.4e-07 sca=10.2959 scb=0.00764059 scc=8.89329e-05
MXI1/XI7/MPM1	XI1/net4#12	XI1/XI7/net6	XI1/XI7/net4#3	vdd!
+ g45p1svt	L=4.5e-08	W=2.4e-07
+ AD=3.36e-14	AS=3.36e-14	PD=7.6e-07	PS=7.6e-07
+ fw=2.4e-07 sa=1.4e-07 sb=1.4e-07 sca=10.2959 scb=0.00764059 scc=8.89329e-05
MXI1/XI7/MPM3	XI1/net4#11	XI1/XI7/net14	XI1/XI7/net4#5	vdd!
+ g45p1svt	L=4.5e-08	W=2.4e-07
+ AD=3.36e-14	AS=3.36e-14	PD=7.6e-07	PS=7.6e-07
+ fw=2.4e-07 sa=1.4e-07 sb=1.4e-07 sca=10.2959 scb=0.00764059 scc=8.89329e-05
MXI1/XI7/MPM0	XI1/XI7/net4#7	A4#11	vdd!#153	vdd!	g45p1svt
+ L=4.5e-08	W=2.4e-07
+ AD=3.36e-14	AS=3.36e-14	PD=7.6e-07	PS=7.6e-07
+ fw=2.4e-07 sa=1.4e-07 sb=1.4e-07 sca=10.2959 scb=0.00764059 scc=8.89329e-05
MXI1/XI7/XI12/MPM0	XI1/XI7/net6#8	A4#16	vdd!#159	vdd!
+ g45p1svt	L=4.5e-08	W=2.4e-07
+ AD=3.36e-14	AS=3.36e-14	PD=7.6e-07	PS=7.6e-07
+ fw=2.4e-07 sa=1.4e-07 sb=1.4e-07 sca=10.327 scb=0.00769864 scc=9.24832e-05
MXI1/XI7/XI13/MPM0	XI1/XI7/net14#8	B4#19	vdd!#157	vdd!
+ g45p1svt	L=4.5e-08	W=2.4e-07
+ AD=3.36e-14	AS=3.36e-14	PD=7.6e-07	PS=7.6e-07
+ fw=2.4e-07 sa=1.4e-07 sb=1.4e-07 sca=10.327 scb=0.00769864 scc=9.24832e-05
MXI1/XI0/XI1/XI0/XI12/MPM0	XI1/XI0/XI1/XI0/net6#8	A5#6	vdd!#151
+ vdd!	g45p1svt	L=4.5e-08	W=2.4e-07
+ AD=3.36e-14	AS=3.36e-14	PD=7.6e-07	PS=7.6e-07
+ fw=2.4e-07 sa=1.4e-07 sb=1.4e-07 sca=10.327 scb=0.00769864 scc=9.24832e-05
MXI1/XI0/XI1/XI0/XI13/MPM0	XI1/XI0/XI1/XI0/net2#8	B5#7	vdd!#149
+ vdd!	g45p1svt	L=4.5e-08	W=2.4e-07
+ AD=3.36e-14	AS=3.36e-14	PD=7.6e-07	PS=7.6e-07
+ fw=2.4e-07 sa=1.4e-07 sb=1.4e-07 sca=10.327 scb=0.00769864 scc=9.24832e-05
MXI1/XI8/XI12/MPM0	XI1/XI8/net6#8	A5#16	vdd!#122	vdd!
+ g45p1svt	L=4.5e-08	W=2.4e-07
+ AD=3.36e-14	AS=3.36e-14	PD=7.6e-07	PS=7.6e-07
+ fw=2.4e-07 sa=1.4e-07 sb=1.4e-07 sca=10.327 scb=0.00769864 scc=9.24832e-05
MXI1/XI8/XI13/MPM0	XI1/XI8/net14#8	B5#19	vdd!#120	vdd!
+ g45p1svt	L=4.5e-08	W=2.4e-07
+ AD=3.36e-14	AS=3.36e-14	PD=7.6e-07	PS=7.6e-07
+ fw=2.4e-07 sa=1.4e-07 sb=1.4e-07 sca=10.327 scb=0.00769864 scc=9.24832e-05
MXI1/XI0/XI2/XI0/XI12/MPM0	XI1/XI0/XI2/XI0/net6#8	A6#6	vdd!#112
+ vdd!	g45p1svt	L=4.5e-08	W=2.4e-07
+ AD=3.36e-14	AS=3.36e-14	PD=7.6e-07	PS=7.6e-07
+ fw=2.4e-07 sa=1.4e-07 sb=1.4e-07 sca=10.327 scb=0.00769864 scc=9.24832e-05
MXI1/XI0/XI2/XI0/XI13/MPM0	XI1/XI0/XI2/XI0/net2#8	B6#7	vdd!#110
+ vdd!	g45p1svt	L=4.5e-08	W=2.4e-07
+ AD=3.36e-14	AS=3.36e-14	PD=7.6e-07	PS=7.6e-07
+ fw=2.4e-07 sa=1.4e-07 sb=1.4e-07 sca=10.327 scb=0.00769864 scc=9.24832e-05
MXI1/XI9/XI12/MPM0	XI1/XI9/net6#8	A6#16	vdd!#82	vdd!
+ g45p1svt	L=4.5e-08	W=2.4e-07
+ AD=3.36e-14	AS=3.36e-14	PD=7.6e-07	PS=7.6e-07
+ fw=2.4e-07 sa=1.4e-07 sb=1.4e-07 sca=10.327 scb=0.00769864 scc=9.24832e-05
MXI1/XI9/XI13/MPM0	XI1/XI9/net14#8	B6#19	vdd!#81	vdd!
+ g45p1svt	L=4.5e-08	W=2.4e-07
+ AD=3.36e-14	AS=3.36e-14	PD=7.6e-07	PS=7.6e-07
+ fw=2.4e-07 sa=1.4e-07 sb=1.4e-07 sca=10.327 scb=0.00769864 scc=9.24832e-05
MXI1/XI0/XI3/XI0/XI12/MPM0	XI1/XI0/XI3/XI0/net6#8	A7#6	vdd!#78
+ vdd!	g45p1svt	L=4.5e-08	W=2.4e-07
+ AD=3.36e-14	AS=3.36e-14	PD=7.6e-07	PS=7.6e-07
+ fw=2.4e-07 sa=1.4e-07 sb=1.4e-07 sca=10.327 scb=0.00769864 scc=9.24832e-05
MXI1/XI0/XI3/XI0/XI13/MPM0	XI1/XI0/XI3/XI0/net2#8	B7#7	vdd!#77
+ vdd!	g45p1svt	L=4.5e-08	W=2.4e-07
+ AD=3.36e-14	AS=3.36e-14	PD=7.6e-07	PS=7.6e-07
+ fw=2.4e-07 sa=1.4e-07 sb=1.4e-07 sca=10.327 scb=0.00769864 scc=9.24832e-05
MXI1/XI10/XI12/MPM0	XI1/XI10/net6#8	A7#16	vdd!#64	vdd!
+ g45p1svt	L=4.5e-08	W=2.4e-07
+ AD=3.36e-14	AS=3.36e-14	PD=7.6e-07	PS=7.6e-07
+ fw=2.4e-07 sa=1.4e-07 sb=1.4e-07 sca=10.327 scb=0.00769864 scc=9.24832e-05
MXI1/XI10/XI13/MPM0	XI1/XI10/net14#8	B7#19	vdd!#63	vdd!
+ g45p1svt	L=4.5e-08	W=2.4e-07
+ AD=3.36e-14	AS=3.36e-14	PD=7.6e-07	PS=7.6e-07
+ fw=2.4e-07 sa=1.4e-07 sb=1.4e-07 sca=10.327 scb=0.00769864 scc=9.24832e-05
MXI0/XI11/XI2/MPM0	XI0/XI11/net1#8	XI0/net2#6	vdd!#200
+ vdd!	g45p1svt	L=4.5e-08	W=2.4e-07
+ AD=3.36e-14	AS=3.36e-14	PD=7.6e-07	PS=7.6e-07
+ fw=2.4e-07 sa=1.4e-07 sb=1.4e-07 sca=11.7234 scb=0.0101098 scc=0.000278382
MXI0/XI11/MPM3	XI0/XI11/net9	XI0/XI11/net1	vdd!#198	vdd!
+ g45p1svt	L=4.5e-08	W=2.4e-07
+ AD=3.36e-14	AS=3.36e-14	PD=7.6e-07	PS=7.6e-07
+ fw=2.4e-07 sa=1.4e-07 sb=1.4e-07 sca=11.7234 scb=0.0101098 scc=0.000278382
MXI0/XI11/MPM0	XI0/XI11/net4#2	XI0/net2	vdd!#196	vdd!
+ g45p1svt	L=4.5e-08	W=2.4e-07
+ AD=3.36e-14	AS=3.36e-14	PD=7.6e-07	PS=7.6e-07
+ fw=2.4e-07 sa=1.4e-07 sb=1.4e-07 sca=11.7234 scb=0.0101098 scc=0.000278382
MXI0/XI11/MPM1	XI0/XI11/net6#11	XI0/net1	XI0/XI11/net4	vdd!
+ g45p1svt	L=4.5e-08	W=2.4e-07
+ AD=3.36e-14	AS=3.36e-14	PD=7.6e-07	PS=7.6e-07
+ fw=2.4e-07 sa=1.4e-07 sb=1.4e-07 sca=11.7234 scb=0.0101098 scc=0.000278382
MXI0/XI11/MPM2	XI0/XI11/net6#10	Cin#11	XI0/XI11/net9#3	vdd!
+ g45p1svt	L=4.5e-08	W=2.4e-07
+ AD=3.36e-14	AS=3.36e-14	PD=7.6e-07	PS=7.6e-07
+ fw=2.4e-07 sa=1.4e-07 sb=1.4e-07 sca=11.7234 scb=0.0101098 scc=0.000278382
MXI0/XI5/XI5/MPM0	XI0/net2#7	XI0/XI5/net1	vdd!#203	vdd!
+ g45p1svt	L=4.5e-08	W=2.4e-07
+ AD=3.36e-14	AS=3.36e-14	PD=7.6e-07	PS=7.6e-07
+ fw=2.4e-07 sa=1.4e-07 sb=1.4e-07 sca=18.2452 scb=0.0177397 scc=0.00150411
MXI0/XI5/XI3/MPM0	XI0/XI5/net2#5	XI0/XI5/net3	vdd!#210	vdd!
+ g45p1svt	L=4.5e-08	W=2.4e-07
+ AD=3.36e-14	AS=3.36e-14	PD=7.6e-07	PS=7.6e-07
+ fw=2.4e-07 sa=1.4e-07 sb=1.4e-07 sca=18.2452 scb=0.0177397 scc=0.00150411
MXI0/XI5/XI4/MPM0	XI0/XI5/net5#5	XI0/XI5/net6	vdd!#216	vdd!
+ g45p1svt	L=4.5e-08	W=2.4e-07
+ AD=3.36e-14	AS=3.36e-14	PD=7.6e-07	PS=7.6e-07
+ fw=2.4e-07 sa=1.4e-07 sb=1.4e-07 sca=18.2452 scb=0.0177397 scc=0.00150411
MXI0/XI5/XI6/MPM0	XI0/XI5/net1#7	XI0/XI5/net2	vdd!#207	vdd!
+ g45p1svt	L=4.5e-08	W=2.4e-07
+ AD=3.84e-14	AS=3.36e-14	PD=8e-07	PS=7.6e-07
+ fw=2.4e-07 sa=1.4e-07 sb=3.45e-07 sca=21.6767 scb=0.0202328 scc=0.0021948
MXI0/XI5/XI6/MPM1	XI0/XI5/net1#7	XI0/XI5/net5#4	vdd!#205	vdd!
+ g45p1svt	L=4.5e-08	W=2.4e-07
+ AD=3.84e-14	AS=3.36e-14	PD=8e-07	PS=7.6e-07
+ fw=2.4e-07 sa=3.45e-07 sb=1.4e-07 sca=21.6767 scb=0.0202328 scc=0.0021948
MXI0/XI5/XI0/MPM1	XI0/XI5/net3#7	XI0/net6	vdd!#214	vdd!
+ g45p1svt	L=4.5e-08	W=2.4e-07
+ AD=3.84e-14	AS=3.36e-14	PD=8e-07	PS=7.6e-07
+ fw=2.4e-07 sa=1.4e-07 sb=3.45e-07 sca=21.6767 scb=0.0202328 scc=0.0021948
MXI0/XI5/XI0/MPM0	XI0/XI5/net3#7	XI0/net4#4	vdd!#212	vdd!
+ g45p1svt	L=4.5e-08	W=2.4e-07
+ AD=3.84e-14	AS=3.36e-14	PD=8e-07	PS=7.6e-07
+ fw=2.4e-07 sa=3.45e-07 sb=1.4e-07 sca=21.6767 scb=0.0202328 scc=0.0021948
MXI0/XI5/XI1/MPM1	XI0/XI5/net6#7	XI0/net8	vdd!#221	vdd!
+ g45p1svt	L=4.5e-08	W=2.4e-07
+ AD=3.84e-14	AS=3.36e-14	PD=8e-07	PS=7.6e-07
+ fw=2.4e-07 sa=1.4e-07 sb=3.45e-07 sca=21.6767 scb=0.0202328 scc=0.0021948
MXI0/XI5/XI1/MPM0	XI0/XI5/net6#7	XI0/net7#4	vdd!#219	vdd!
+ g45p1svt	L=4.5e-08	W=2.4e-07
+ AD=3.84e-14	AS=3.36e-14	PD=8e-07	PS=7.6e-07
+ fw=2.4e-07 sa=3.45e-07 sb=1.4e-07 sca=21.6767 scb=0.0202328 scc=0.0021948
MXI0/XI0/XI3/XI9/MPM0	XI0/XI0/XI3/XI9/net4	XI0/XI0/XI3/net2#5
+ vdd!#235	vdd!	g45p1svt	L=4.5e-08	W=2.4e-07
+ AD=3.36e-14	AS=3.36e-14	PD=7.6e-07	PS=7.6e-07
+ fw=2.4e-07 sa=1.4e-07 sb=1.4e-07 sca=10.2959 scb=0.00764059 scc=8.89329e-05
MXI0/XI0/XI3/XI9/MPM3	S3#6	XI0/XI0/XI3/XI9/net2	XI0/XI0/XI3/XI9/net4#3
+ vdd!	g45p1svt	L=4.5e-08	W=2.4e-07
+ AD=3.36e-14	AS=3.36e-14	PD=7.6e-07	PS=7.6e-07
+ fw=2.4e-07 sa=1.4e-07 sb=1.4e-07 sca=10.2959 scb=0.00764059 scc=8.89329e-05
MXI0/XI0/XI3/XI9/MPM1	S3#5	XI0/XI0/XI3/XI9/net6	XI0/XI0/XI3/XI9/net4#5
+ vdd!	g45p1svt	L=4.5e-08	W=2.4e-07
+ AD=3.36e-14	AS=3.36e-14	PD=7.6e-07	PS=7.6e-07
+ fw=2.4e-07 sa=1.4e-07 sb=1.4e-07 sca=10.2959 scb=0.00764059 scc=8.89329e-05
MXI0/XI0/XI3/XI9/MPM2	XI0/XI0/XI3/XI9/net4#7	XI0/XI0/net1#5	vdd!#232
+ vdd!	g45p1svt	L=4.5e-08	W=2.4e-07
+ AD=3.36e-14	AS=3.36e-14	PD=7.6e-07	PS=7.6e-07
+ fw=2.4e-07 sa=1.4e-07 sb=1.4e-07 sca=10.2959 scb=0.00764059 scc=8.89329e-05
MXI0/XI0/XI3/XI0/MPM2	XI0/XI0/XI3/XI0/net4	B3#1	vdd!#258	vdd!
+ g45p1svt	L=4.5e-08	W=2.4e-07
+ AD=3.36e-14	AS=3.36e-14	PD=7.6e-07	PS=7.6e-07
+ fw=2.4e-07 sa=1.4e-07 sb=1.4e-07 sca=10.2959 scb=0.00764059 scc=8.89329e-05
MXI0/XI0/XI3/XI0/MPM1	XI0/XI0/XI3/net2#21	XI0/XI0/XI3/XI0/net6
+ XI0/XI0/XI3/XI0/net4#3	vdd!	g45p1svt	L=4.5e-08
+ W=2.4e-07
+ AD=3.36e-14	AS=3.36e-14	PD=7.6e-07	PS=7.6e-07
+ fw=2.4e-07 sa=1.4e-07 sb=1.4e-07 sca=10.2959 scb=0.00764059 scc=8.89329e-05
MXI0/XI0/XI3/XI0/MPM3	XI0/XI0/XI3/net2#20	XI0/XI0/XI3/XI0/net2
+ XI0/XI0/XI3/XI0/net4#5	vdd!	g45p1svt	L=4.5e-08
+ W=2.4e-07
+ AD=3.36e-14	AS=3.36e-14	PD=7.6e-07	PS=7.6e-07
+ fw=2.4e-07 sa=1.4e-07 sb=1.4e-07 sca=10.2959 scb=0.00764059 scc=8.89329e-05
MXI0/XI0/XI3/XI0/MPM0	XI0/XI0/XI3/XI0/net4#7	A3#1	vdd!#255	vdd!
+ g45p1svt	L=4.5e-08	W=2.4e-07
+ AD=3.36e-14	AS=3.36e-14	PD=7.6e-07	PS=7.6e-07
+ fw=2.4e-07 sa=1.4e-07 sb=1.4e-07 sca=10.2959 scb=0.00764059 scc=8.89329e-05
MXI0/XI0/XI3/XI2/MPM1	XI0/XI0/XI3/net6#7	XI0/XI0/XI3/net2
+ vdd!#253	vdd!	g45p1svt	L=4.5e-08	W=4.8e-07
+ AD=7.68e-14	AS=6.72e-14	PD=1.28e-06	PS=1.24e-06
+ fw=4.8e-07 sa=1.4e-07 sb=3.45e-07 sca=15.9511 scb=0.0138709 scc=0.00113792
MXI0/XI0/XI3/XI2/MPM0	XI0/XI0/XI3/net6#7	XI0/XI0/net1#4	vdd!#251
+ vdd!	g45p1svt	L=4.5e-08	W=4.8e-07
+ AD=7.68e-14	AS=6.72e-14	PD=1.28e-06	PS=1.24e-06
[...]
C22303	vdd!#92	gnd!	3.14432e-19	$X=90.939 $Y=1.661
C22304	vdd!#94	gnd!	2.43423e-19	$X=90.529 $Y=1.661
C22305	vdd!#98	gnd!	8.45899e-20	$X=89.529 $Y=1.661
C22306	vdd!#100	gnd!	2.90141e-19	$X=88.939 $Y=1.721
C22307	vdd!#102	gnd!	3.46505e-19	$X=88.529 $Y=1.721
C22308	vdd!#104	gnd!	6.64635e-19	$X=88.129 $Y=1.715
C22309	vdd!#107	gnd!	5.29268e-19	$X=86.529 $Y=1.715
C22310	vdd!#109	gnd!	1.24216e-19	$X=85.809 $Y=1.7135
C22311	vdd!#111	gnd!	6.13401e-19	$X=85.344 $Y=1.7135
C22312	vdd!#114	gnd!	1.75566e-19	$X=84.5145 $Y=1.7795
C22313	vdd!#116	gnd!	1.36713e-19	$X=83.744 $Y=1.7795
C22314	vdd!#119	gnd!	2.43944e-19	$X=82.609 $Y=1.7135
C22315	vdd!#121	gnd!	1.70291e-19	$X=82.144 $Y=1.7135
C22316	vdd!#123	gnd!	1.21563e-19	$X=81.3795 $Y=1.7795
C22317	vdd!#128	gnd!	1.84552e-19	$X=79.409 $Y=1.7135
C22318	vdd!#130	gnd!	2.40331e-19	$X=78.944 $Y=1.7135
C22319	vdd!#132	gnd!	2.70298e-19	$X=78.339 $Y=1.661
C22320	vdd!#136	gnd!	5.4187e-19	$X=77.339 $Y=1.661
C22321	vdd!#138	gnd!	8.45899e-20	$X=76.929 $Y=1.661
C22322	vdd!#140	gnd!	2.90141e-19	$X=76.339 $Y=1.721
C22323	vdd!#142	gnd!	4.97685e-19	$X=75.929 $Y=1.721
C22324	vdd!#146	gnd!	4.10266e-19	$X=74.344 $Y=1.7795
C22325	vdd!#150	gnd!	2.76253e-20	$X=72.744 $Y=1.7135
C22326	vdd!#152	gnd!	1.20741e-18	$X=71.9265 $Y=1.7795
C22327	vdd!#156	gnd!	1.74863e-19	$X=70.009 $Y=1.7135
C22328	vdd!#158	gnd!	2.30737e-19	$X=69.544 $Y=1.7135
C22329	vdd!#163	gnd!	1.15696e-19	$X=67.529 $Y=1.715
C22330	vdd!#165	gnd!	1.84552e-19	$X=66.809 $Y=1.7135
C22331	vdd!#167	gnd!	2.40331e-19	$X=66.3445 $Y=1.7135
C22332	vdd!#170	gnd!	4.67164e-19	$X=65.739 $Y=1.661
C22333	vdd!#172	gnd!	2.43423e-19	$X=65.329 $Y=1.661
C22334	vdd!#174	gnd!	5.4187e-19	$X=64.739 $Y=1.661
C22335	vdd!#176	gnd!	8.45899e-20	$X=64.329 $Y=1.661
C22336	vdd!#178	gnd!	1.14619e-18	$X=63.9015 $Y=1.7795
C22337	vdd!#181	gnd!	5.67473e-19	$X=63.3295 $Y=1.721
C22338	vdd!#183	gnd!	8.40201e-19	$X=62.5145 $Y=1.7795
C22339	vdd!#185	gnd!	8.10754e-19	$X=61.7445 $Y=1.7795
C22340	vdd!#188	gnd!	1.15785e-19	$X=60.6095 $Y=1.7135
C22341	vdd!#190	gnd!	1.72559e-19	$X=60.144 $Y=1.7135
C22342	vdd!#192	gnd!	4.96294e-19	$X=59.4695 $Y=1.6935
C22343	vdd!#195	gnd!	6.73296e-19	$X=58.0845 $Y=1.7795
C22344	vdd!#202	gnd!	1.03602e-18	$X=55.8595 $Y=1.6675
C22345	vdd!#204	gnd!	2.39396e-19	$X=55.2595 $Y=1.7795
C22346	vdd!#206	gnd!	1.97077e-19	$X=54.6295 $Y=1.661
C22347	vdd!#209	gnd!	8.46659e-21	$X=53.64 $Y=1.7795
C22348	vdd!#211	gnd!	3.7108e-19	$X=53.2595 $Y=1.7795
C22349	vdd!#213	gnd!	1.39186e-18	$X=52.6295 $Y=1.661
C22350	vdd!#218	gnd!	7.53153e-19	$X=51.0395 $Y=1.661
C22351	vdd!#220	gnd!	1.54091e-19	$X=50.6295 $Y=1.661
C22352	vdd!#227	gnd!	1.74863e-19	$X=47.9095 $Y=1.7135
C22353	vdd!#229	gnd!	4.44895e-19	$X=47.4445 $Y=1.7135
C22354	vdd!#234	gnd!	2.15101e-20	$X=45.7945 $Y=1.7795
C22355	vdd!#236	gnd!	3.3954e-20	$X=44.9045 $Y=1.7795
C22356	vdd!#239	gnd!	2.98938e-20	$X=44.0785 $Y=1.7795
C22357	vdd!#241	gnd!	7.96727e-19	$X=43.6395 $Y=1.661
C22358	vdd!#243	gnd!	2.43423e-19	$X=43.2295 $Y=1.661
C22359	vdd!#245	gnd!	5.4187e-19	$X=42.6395 $Y=1.661
C22360	vdd!#247	gnd!	3.91068e-19	$X=42.2295 $Y=1.661
C22361	vdd!#250	gnd!	2.90141e-19	$X=41.6395 $Y=1.721
C22362	vdd!#252	gnd!	6.23109e-19	$X=41.2295 $Y=1.721
C22363	vdd!#254	gnd!	6.64635e-19	$X=40.53 $Y=1.7795
C22364	vdd!#259	gnd!	1.61035e-19	$X=38.5095 $Y=1.7135
C22365	vdd!#261	gnd!	1.70291e-19	$X=38.0445 $Y=1.7135
C22366	vdd!#263	gnd!	2.30809e-19	$X=37.6295 $Y=1.715
C22367	vdd!#266	gnd!	4.10266e-19	$X=36.3445 $Y=1.7795
C22368	vdd!#268	gnd!	1.33383e-19	$X=35.3095 $Y=1.7135
C22369	vdd!#272	gnd!	1.75566e-19	$X=34.015 $Y=1.7795
C22370	vdd!#277	gnd!	4.2683e-19	$X=32.1095 $Y=1.7135
C22371	vdd!#279	gnd!	2.40331e-19	$X=31.6445 $Y=1.7135
C22372	vdd!#281	gnd!	3.14432e-19	$X=31.0395 $Y=1.661
C22373	vdd!#283	gnd!	2.43423e-19	$X=30.6295 $Y=1.661
C22374	vdd!#287	gnd!	8.45899e-20	$X=29.6295 $Y=1.661
C22375	vdd!#289	gnd!	2.90141e-19	$X=29.0395 $Y=1.721
C22376	vdd!#291	gnd!	3.46505e-19	$X=28.6295 $Y=1.721
C22377	vdd!#293	gnd!	6.64635e-19	$X=28.2295 $Y=1.715
C22378	vdd!#296	gnd!	5.29268e-19	$X=26.6295 $Y=1.715
C22379	vdd!#298	gnd!	1.24216e-19	$X=25.9095 $Y=1.7135
C22380	vdd!#300	gnd!	6.13401e-19	$X=25.4445 $Y=1.7135
C22381	vdd!#303	gnd!	1.75566e-19	$X=24.615 $Y=1.7795
C22382	vdd!#305	gnd!	1.36713e-19	$X=23.8445 $Y=1.7795
C22383	vdd!#308	gnd!	2.43944e-19	$X=22.7095 $Y=1.7135
C22384	vdd!#310	gnd!	1.70291e-19	$X=22.2445 $Y=1.7135
C22385	vdd!#312	gnd!	1.21563e-19	$X=21.48 $Y=1.7795
C22386	vdd!#317	gnd!	1.84552e-19	$X=19.5095 $Y=1.7135
C22387	vdd!#319	gnd!	2.40331e-19	$X=19.0445 $Y=1.7135
C22388	vdd!#321	gnd!	2.70298e-19	$X=18.4395 $Y=1.661
C22389	vdd!#325	gnd!	5.4187e-19	$X=17.4395 $Y=1.661
C22390	vdd!#327	gnd!	8.45899e-20	$X=17.0295 $Y=1.661
C22391	vdd!#329	gnd!	2.90141e-19	$X=16.4395 $Y=1.721
C22392	vdd!#331	gnd!	4.97685e-19	$X=16.0295 $Y=1.721
C22393	vdd!#335	gnd!	4.10266e-19	$X=14.4445 $Y=1.7795
C22394	vdd!#339	gnd!	2.76253e-20	$X=12.8445 $Y=1.7135
C22395	vdd!#341	gnd!	1.20741e-18	$X=12.027 $Y=1.7795
C22396	vdd!#345	gnd!	1.74863e-19	$X=10.1095 $Y=1.7135
C22397	vdd!#347	gnd!	2.30737e-19	$X=9.6445 $Y=1.7135
C22398	vdd!#352	gnd!	1.15696e-19	$X=7.6295 $Y=1.715
C22399	vdd!#354	gnd!	1.84552e-19	$X=6.9095 $Y=1.7135
C22400	vdd!#356	gnd!	2.40331e-19	$X=6.4445 $Y=1.7135
C22401	vdd!#359	gnd!	9.96575e-19	$X=5.8395 $Y=1.661
C22402	vdd!#361	gnd!	2.43423e-19	$X=5.4295 $Y=1.661
C22403	vdd!#363	gnd!	5.4187e-19	$X=4.8395 $Y=1.661
C22404	vdd!#365	gnd!	8.45899e-20	$X=4.4295 $Y=1.661
C22405	vdd!#367	gnd!	1.14619e-18	$X=4.002 $Y=1.7795
C22406	vdd!#370	gnd!	5.67473e-19	$X=3.4295 $Y=1.721
C22407	vdd!#372	gnd!	8.40201e-19	$X=2.615 $Y=1.7795
C22408	vdd!#374	gnd!	4.48955e-19	$X=1.8445 $Y=1.7795
C22409	vdd!#377	gnd!	1.15785e-19	$X=0.7095 $Y=1.7135
C22410	B0#2	gnd!	3.50121e-18	$X=1.532 $Y=0.976
C22411	B0#3	gnd!	5.26891e-19	$X=1.003 $Y=1.052
C22412	B0#4	gnd!	5.79488e-18	$X=0.812 $Y=0.79
C22413	XI0/XI0/XI0/XI0/net6#2	gnd!	5.30568e-18	$X=1.997 $Y=0.93
C22414	XI0/XI0/XI0/XI0/net2#2	gnd!	8.67349e-18	$X=2.462 $Y=0.845
C22415	A0#4	gnd!	4.51202e-18	$X=0.347 $Y=0.95
C22416	XI0/XI0/XI0/net2#2	gnd!	4.03937e-18	$X=3.532 $Y=0.8175
C22417	Cin#2	gnd!	1.40686e-17	$X=3.737 $Y=0.8175
C22418	B0#10	gnd!	5.38724e-18	$X=4.532 $Y=0.8175
C22419	A0#8	gnd!	1.27981e-17	$X=4.737 $Y=0.8175
C22420	XI0/XI0/XI0/net1#2	gnd!	4.02939e-18	$X=5.532 $Y=0.8175
C22421	XI0/XI0/XI0/net6#2	gnd!	1.35555e-17	$X=5.737 $Y=0.8175
C22422	XI0/XI0/XI0/net2#6	gnd!	5.45854e-18	$X=7.732 $Y=0.976
C22423	XI0/XI0/XI0/net2#7	gnd!	1.02812e-18	$X=7.203 $Y=1.052
C22424	XI0/XI0/XI0/net2#8	gnd!	6.12911e-18	$X=7.012 $Y=0.79
C22425	XI0/XI0/XI0/XI9/net2#2	gnd!	5.39989e-18	$X=8.197 $Y=0.93
C22426	XI0/XI0/XI0/XI9/net6#2	gnd!	8.49534e-18	$X=8.662 $Y=0.845
C22427	Cin#8	gnd!	5.99056e-18	$X=6.547 $Y=0.95
C22428	B0#14	gnd!	4.97348e-18	$X=10.932 $Y=0.976
C22429	B0#15	gnd!	6.75972e-19	$X=10.403 $Y=1.052
C22430	B0#16	gnd!	6.69664e-18	$X=10.212 $Y=0.79
C22431	XI0/XI7/net6#2	gnd!	5.30927e-18	$X=11.397 $Y=0.93
C22432	XI0/XI7/net14#2	gnd!	8.20865e-18	$X=11.862 $Y=0.845
C22433	A0#14	gnd!	4.1349e-18	$X=9.747 $Y=0.95
C22434	B1#2	gnd!	3.12049e-18	$X=14.132 $Y=0.976
C22435	B1#3	gnd!	9.48913e-19	$X=13.603 $Y=1.052
C22436	B1#4	gnd!	6.30581e-18	$X=13.412 $Y=0.79
C22437	XI0/XI0/XI1/XI0/net6#2	gnd!	5.30568e-18	$X=14.597 $Y=0.93
C22438	XI0/XI0/XI1/XI0/net2#2	gnd!	8.67012e-18	$X=15.062 $Y=0.845
C22439	A1#4	gnd!	3.83449e-18	$X=12.947 $Y=0.95
C22440	XI0/XI0/XI1/net2#2	gnd!	4.03937e-18	$X=16.132 $Y=0.8175
C22441	XI0/XI0/net5#2	gnd!	1.32619e-17	$X=16.337 $Y=0.8175
C22442	B1#10	gnd!	5.38724e-18	$X=17.132 $Y=0.8175
C22443	A1#8	gnd!	1.27981e-17	$X=17.337 $Y=0.8175
C22444	XI0/XI0/XI1/net1#2	gnd!	4.02939e-18	$X=18.132 $Y=0.8175
C22445	XI0/XI0/XI1/net6#2	gnd!	1.34837e-17	$X=18.337 $Y=0.8175
C22446	XI0/XI0/XI1/net2#6	gnd!	5.49195e-18	$X=20.332 $Y=0.976
C22447	XI0/XI0/XI1/net2#7	gnd!	1.02812e-18	$X=19.803 $Y=1.052
C22448	XI0/XI0/XI1/net2#8	gnd!	6.12911e-18	$X=19.612 $Y=0.79
C22449	XI0/XI0/XI1/XI9/net2#2	gnd!	5.40001e-18	$X=20.797 $Y=0.93
C22450	XI0/XI0/XI1/XI9/net6#2	gnd!	8.50408e-18	$X=21.262 $Y=0.845
C22451	XI0/XI0/net5#8	gnd!	5.99056e-18	$X=19.147 $Y=0.95
C22452	B1#14	gnd!	4.97348e-18	$X=23.532 $Y=0.976
C22453	B1#15	gnd!	5.21584e-19	$X=23.003 $Y=1.052
C22454	B1#16	gnd!	6.31188e-18	$X=22.812 $Y=0.79
C22455	XI0/XI8/net6#2	gnd!	5.30927e-18	$X=23.997 $Y=0.93
C22456	XI0/XI8/net14#2	gnd!	8.40033e-18	$X=24.462 $Y=0.845
C22457	A1#14	gnd!	3.74108e-18	$X=22.347 $Y=0.95
C22458	B2#2	gnd!	3.15721e-18	$X=26.732 $Y=0.976
C22459	B2#3	gnd!	9.24657e-19	$X=26.203 $Y=1.052
C22460	B2#4	gnd!	6.42127e-18	$X=26.012 $Y=0.79
C22461	XI0/XI0/XI2/XI0/net6#2	gnd!	5.51635e-18	$X=27.197 $Y=0.93
C22462	XI0/XI0/XI2/XI0/net2#2	gnd!	8.65039e-18	$X=27.662 $Y=0.845
C22463	A2#4	gnd!	4.16665e-18	$X=25.547 $Y=0.95
C22464	XI0/XI0/XI2/net2#2	gnd!	4.25056e-18	$X=28.732 $Y=0.8175
C22465	XI0/XI0/net10#2	gnd!	1.30592e-17	$X=28.937 $Y=0.8175
C22466	B2#10	gnd!	6.07248e-18	$X=29.732 $Y=0.8175
C22467	A2#8	gnd!	1.29999e-17	$X=29.937 $Y=0.8175
C22468	XI0/XI0/XI2/net1#2	gnd!	4.10458e-18	$X=30.732 $Y=0.8175
C22469	XI0/XI0/XI2/net6#2	gnd!	1.36941e-17	$X=30.937 $Y=0.8175
C22470	XI0/XI0/XI2/net2#6	gnd!	5.46567e-18	$X=32.932 $Y=0.976
C22471	XI0/XI0/XI2/net2#7	gnd!	9.70537e-19	$X=32.403 $Y=1.052
C22472	XI0/XI0/XI2/net2#8	gnd!	6.26202e-18	$X=32.212 $Y=0.79
C22473	XI0/XI0/XI2/XI9/net2#2	gnd!	5.52835e-18	$X=33.397 $Y=0.93
C22474	XI0/XI0/XI2/XI9/net6#2	gnd!	9.20236e-18	$X=33.862 $Y=0.845
C22475	XI0/XI0/net10#8	gnd!	6.25807e-18	$X=31.747 $Y=0.95
C22476	B2#14	gnd!	5.0183e-18	$X=36.132 $Y=0.976
C22477	B2#15	gnd!	6.73778e-19	$X=35.603 $Y=1.052
C22478	B2#16	gnd!	6.6934e-18	$X=35.412 $Y=0.79
C22479	XI0/XI9/net6#2	gnd!	5.43047e-18	$X=36.597 $Y=0.93
C22480	XI0/XI9/net14#2	gnd!	8.32734e-18	$X=37.062 $Y=0.845
C22481	A2#14	gnd!	4.22346e-18	$X=34.947 $Y=0.95
C22482	B3#2	gnd!	3.12049e-18	$X=39.332 $Y=0.976
C22483	B3#3	gnd!	9.28325e-19	$X=38.803 $Y=1.052
C22484	B3#4	gnd!	6.1824e-18	$X=38.612 $Y=0.79
C22485	XI0/XI0/XI3/XI0/net6#2	gnd!	5.30568e-18	$X=39.797 $Y=0.93
C22486	XI0/XI0/XI3/XI0/net2#2	gnd!	8.53198e-18	$X=40.262 $Y=0.845
C22487	A3#4	gnd!	4.08214e-18	$X=38.147 $Y=0.95
C22488	XI0/XI0/XI3/net2#2	gnd!	4.15014e-18	$X=41.332 $Y=0.8175
C22489	XI0/XI0/net1#2	gnd!	1.3147e-17	$X=41.537 $Y=0.8175
C22490	B3#10	gnd!	5.38724e-18	$X=42.332 $Y=0.8175
C22491	A3#8	gnd!	1.27981e-17	$X=42.537 $Y=0.8175
C22492	XI0/XI0/XI3/net1#2	gnd!	4.02291e-18	$X=43.332 $Y=0.8175
C22493	XI0/XI0/XI3/net6#2	gnd!	1.34901e-17	$X=43.537 $Y=0.8175
C22494	XI0/XI0/XI3/net2#6	gnd!	4.97348e-18	$X=45.532 $Y=0.976
C22495	XI0/XI0/XI3/net2#7	gnd!	1.00386e-18	$X=45.003 $Y=1.052
C22496	XI0/XI0/XI3/net2#8	gnd!	6.14317e-18	$X=44.812 $Y=0.79
C22497	XI0/XI0/XI3/XI9/net2#2	gnd!	5.3178e-18	$X=45.997 $Y=0.93
C22498	XI0/XI0/XI3/XI9/net6#2	gnd!	8.87377e-18	$X=46.462 $Y=0.845
C22499	XI0/XI0/net1#8	gnd!	6.09627e-18	$X=44.347 $Y=0.95
C22500	B3#14	gnd!	4.97348e-18	$X=48.732 $Y=0.976
C22501	B3#15	gnd!	6.84186e-19	$X=48.203 $Y=1.052
C22502	B3#16	gnd!	6.72572e-18	$X=48.012 $Y=0.79
C22503	XI0/XI10/net6#2	gnd!	5.31077e-18	$X=49.197 $Y=0.93
C22504	XI0/XI10/net14#2	gnd!	8.6588e-18	$X=49.662 $Y=0.845
C22505	A3#14	gnd!	4.16746e-18	$X=47.547 $Y=0.95
C22506	XI0/net8#2	gnd!	6.22295e-18	$X=50.7315 $Y=0.8175
C22507	XI0/net7#2	gnd!	1.30882e-17	$X=50.937 $Y=0.8175
C22508	XI0/XI5/net6#2	gnd!	7.13064e-18	$X=51.962 $Y=0.8685
C22509	XI0/net6#2	gnd!	6.41395e-18	$X=52.7315 $Y=0.8175
C22510	XI0/net4#2	gnd!	1.36973e-17	$X=52.937 $Y=0.8175
C22511	XI0/XI5/net3#2	gnd!	4.0635e-18	$X=53.962 $Y=0.8685
C22512	XI0/XI5/net2#2	gnd!	6.14978e-18	$X=54.7315 $Y=0.8175
C22513	XI0/XI5/net5#2	gnd!	1.3031e-17	$X=54.937 $Y=0.8175
C22514	XI0/XI5/net1#2	gnd!	3.68836e-18	$X=55.962 $Y=0.8685
C22515	XI0/XI11/net1#2	gnd!	5.42198e-18	$X=57.487 $Y=0.8985
C22516	XI0/net2#4	gnd!	4.37579e-18	$X=56.7915 $Y=0.899
C22517	XI0/net1#2	gnd!	6.6078e-18	$X=58.4165 $Y=0.9075
C22518	Cin#12	gnd!	7.71346e-18	$X=58.882 $Y=0.91
C22519	XI0/XI11/net6#2	gnd!	7.80127e-18	$X=59.572 $Y=0.8125
C22520	B4#2	gnd!	3.49576e-18	$X=61.432 $Y=0.976
C22521	B4#3	gnd!	5.26891e-19	$X=60.903 $Y=1.052
C22522	B4#4	gnd!	6.16415e-18	$X=60.712 $Y=0.79
C22523	XI1/XI0/XI0/XI0/net6#2	gnd!	5.30506e-18	$X=61.897 $Y=0.93
C22524	XI1/XI0/XI0/XI0/net2#2	gnd!	8.67349e-18	$X=62.362 $Y=0.845
C22525	A4#4	gnd!	3.37333e-18	$X=60.247 $Y=0.95
C22526	XI1/XI0/XI0/net2#2	gnd!	4.03937e-18	$X=63.4315 $Y=0.8175
C22527	net14#2	gnd!	1.40686e-17	$X=63.6365 $Y=0.8175
C22528	B4#10	gnd!	5.16693e-18	$X=64.4315 $Y=0.8175
C22529	A4#8	gnd!	1.27981e-17	$X=64.6365 $Y=0.8175
C22530	XI1/XI0/XI0/net1#2	gnd!	4.02939e-18	$X=65.4315 $Y=0.8175
C22531	XI1/XI0/XI0/net6#2	gnd!	1.35555e-17	$X=65.6365 $Y=0.8175
C22532	XI1/XI0/XI0/net2#6	gnd!	5.45854e-18	$X=67.632 $Y=0.976
C22533	XI1/XI0/XI0/net2#7	gnd!	1.02812e-18	$X=67.103 $Y=1.052
C22534	XI1/XI0/XI0/net2#8	gnd!	6.12911e-18	$X=66.912 $Y=0.79
C22535	XI1/XI0/XI0/XI9/net2#2	gnd!	5.39989e-18	$X=68.097 $Y=0.93
C22536	XI1/XI0/XI0/XI9/net6#2	gnd!	8.54635e-18	$X=68.562 $Y=0.845
C22537	net14#8	gnd!	5.99056e-18	$X=66.447 $Y=0.95
C22538	B4#14	gnd!	4.97348e-18	$X=70.8315 $Y=0.976
C22539	B4#15	gnd!	6.75972e-19	$X=70.303 $Y=1.052
C22540	B4#16	gnd!	6.69664e-18	$X=70.112 $Y=0.79
C22541	XI1/XI7/net6#2	gnd!	5.30927e-18	$X=71.297 $Y=0.93
C22542	XI1/XI7/net14#2	gnd!	8.20865e-18	$X=71.762 $Y=0.845
C22543	A4#14	gnd!	3.93595e-18	$X=69.647 $Y=0.95
C22544	B5#2	gnd!	3.12049e-18	$X=74.0315 $Y=0.976
C22545	B5#3	gnd!	9.48913e-19	$X=73.5025 $Y=1.052
C22546	B5#4	gnd!	6.30581e-18	$X=73.312 $Y=0.79
C22547	XI1/XI0/XI1/XI0/net6#2	gnd!	5.30568e-18	$X=74.4965 $Y=0.93
C22548	XI1/XI0/XI1/XI0/net2#2	gnd!	8.67012e-18	$X=74.9615 $Y=0.845
C22549	A5#4	gnd!	4.45067e-18	$X=72.847 $Y=0.95
C22550	XI1/XI0/XI1/net2#2	gnd!	4.03937e-18	$X=76.032 $Y=0.8175
C22551	XI1/XI0/net5#2	gnd!	1.32619e-17	$X=76.2365 $Y=0.8175
C22552	B5#10	gnd!	5.38724e-18	$X=77.032 $Y=0.8175
C22553	A5#8	gnd!	1.27981e-17	$X=77.2365 $Y=0.8175
C22554	XI1/XI0/XI1/net1#2	gnd!	4.02939e-18	$X=78.0315 $Y=0.8175
C22555	XI1/XI0/XI1/net6#2	gnd!	1.34837e-17	$X=78.2365 $Y=0.8175
C22556	XI1/XI0/XI1/net2#6	gnd!	5.49195e-18	$X=80.2315 $Y=0.976
C22557	XI1/XI0/XI1/net2#7	gnd!	1.02812e-18	$X=79.7025 $Y=1.052
C22558	XI1/XI0/XI1/net2#8	gnd!	6.12911e-18	$X=79.5115 $Y=0.79
C22559	XI1/XI0/XI1/XI9/net2#2	gnd!	5.40001e-18	$X=80.6965 $Y=0.93
C22560	XI1/XI0/XI1/XI9/net6#2	gnd!	8.52157e-18	$X=81.1615 $Y=0.845
C22561	XI1/XI0/net5#8	gnd!	5.99056e-18	$X=79.047 $Y=0.95
C22562	B5#14	gnd!	4.97348e-18	$X=83.4315 $Y=0.976
C22563	B5#15	gnd!	5.21584e-19	$X=82.9025 $Y=1.052
C22564	B5#16	gnd!	6.31188e-18	$X=82.7115 $Y=0.79
C22565	XI1/XI8/net6#2	gnd!	5.30927e-18	$X=83.897 $Y=0.93
C22566	XI1/XI8/net14#2	gnd!	8.40033e-18	$X=84.362 $Y=0.845
C22567	A5#14	gnd!	3.71164e-18	$X=82.2465 $Y=0.95
C22568	B6#2	gnd!	3.15721e-18	$X=86.6315 $Y=0.976
C22569	B6#3	gnd!	9.24657e-19	$X=86.1025 $Y=1.052
C22570	B6#4	gnd!	6.42127e-18	$X=85.9115 $Y=0.79
C22571	XI1/XI0/XI2/XI0/net6#2	gnd!	5.51635e-18	$X=87.097 $Y=0.93
C22572	XI1/XI0/XI2/XI0/net2#2	gnd!	8.65039e-18	$X=87.5615 $Y=0.845
C22573	A6#4	gnd!	4.16665e-18	$X=85.4465 $Y=0.95
C22574	XI1/XI0/XI2/net2#2	gnd!	4.25056e-18	$X=88.6315 $Y=0.8175
C22575	XI1/XI0/net10#2	gnd!	1.30592e-17	$X=88.8365 $Y=0.8175
C22576	B6#10	gnd!	6.07248e-18	$X=89.6315 $Y=0.8175
C22577	A6#8	gnd!	1.29999e-17	$X=89.8365 $Y=0.8175
C22578	XI1/XI0/XI2/net1#2	gnd!	4.10458e-18	$X=90.632 $Y=0.8175
C22579	XI1/XI0/XI2/net6#2	gnd!	1.36941e-17	$X=90.8365 $Y=0.8175
C22580	XI1/XI0/XI2/net2#6	gnd!	5.46567e-18	$X=92.8315 $Y=0.976
C22581	XI1/XI0/XI2/net2#7	gnd!	9.70537e-19	$X=92.3025 $Y=1.052
C22582	XI1/XI0/XI2/net2#8	gnd!	6.26202e-18	$X=92.1115 $Y=0.79
C22583	XI1/XI0/XI2/XI9/net2#2	gnd!	5.52835e-18	$X=93.2965 $Y=0.93
C22584	XI1/XI0/XI2/XI9/net6#2	gnd!	9.23079e-18	$X=93.7615 $Y=0.845
C22585	XI1/XI0/net10#8	gnd!	6.25807e-18	$X=91.6465 $Y=0.95
C22586	B6#14	gnd!	5.0183e-18	$X=96.0315 $Y=0.976
C22587	B6#15	gnd!	6.73778e-19	$X=95.5025 $Y=1.052
C22588	B6#16	gnd!	6.6934e-18	$X=95.3115 $Y=0.79
C22589	XI1/XI9/net6#2	gnd!	5.43047e-18	$X=96.4965 $Y=0.93
C22590	XI1/XI9/net14#2	gnd!	8.32734e-18	$X=96.9615 $Y=0.845
C22591	A6#14	gnd!	3.97325e-18	$X=94.8465 $Y=0.95
C22592	B7#2	gnd!	3.12049e-18	$X=99.2315 $Y=0.976
C22593	B7#3	gnd!	9.28325e-19	$X=98.7025 $Y=1.052
C22594	B7#4	gnd!	6.1824e-18	$X=98.5115 $Y=0.79
C22595	XI1/XI0/XI3/XI0/net6#2	gnd!	5.30568e-18	$X=99.6965 $Y=0.93
C22596	XI1/XI0/XI3/XI0/net2#2	gnd!	8.53198e-18	$X=100.1615 $Y=0.845
C22597	A7#4	gnd!	4.08214e-18	$X=98.0465 $Y=0.95
C22598	XI1/XI0/XI3/net2#2	gnd!	4.15014e-18	$X=101.2315 $Y=0.8175
C22599	XI1/XI0/net1#2	gnd!	1.3147e-17	$X=101.4365 $Y=0.8175
C22600	B7#10	gnd!	5.38724e-18	$X=102.2315 $Y=0.8175
C22601	A7#8	gnd!	1.27981e-17	$X=102.4365 $Y=0.8175
C22602	XI1/XI0/XI3/net1#2	gnd!	4.02291e-18	$X=103.2315 $Y=0.8175
C22603	XI1/XI0/XI3/net6#2	gnd!	1.34901e-17	$X=103.4365 $Y=0.8175
C22604	XI1/XI0/XI3/net2#6	gnd!	4.97348e-18	$X=105.4315 $Y=0.976
C22605	XI1/XI0/XI3/net2#7	gnd!	1.00386e-18	$X=104.9025 $Y=1.052
C22606	XI1/XI0/XI3/net2#8	gnd!	6.14317e-18	$X=104.7115 $Y=0.79
C22607	XI1/XI0/XI3/XI9/net2#2	gnd!	5.3178e-18	$X=105.8965 $Y=0.93
C22608	XI1/XI0/XI3/XI9/net6#2	gnd!	8.87158e-18	$X=106.3615 $Y=0.845
C22609	XI1/XI0/net1#8	gnd!	6.09627e-18	$X=104.2465 $Y=0.95
C22610	B7#14	gnd!	4.97348e-18	$X=108.6315 $Y=0.976
C22611	B7#15	gnd!	6.84186e-19	$X=108.1025 $Y=1.052
C22612	B7#16	gnd!	6.72572e-18	$X=107.9115 $Y=0.79
C22613	XI1/XI10/net6#2	gnd!	5.31077e-18	$X=109.0965 $Y=0.93
C22614	XI1/XI10/net14#2	gnd!	8.6588e-18	$X=109.5615 $Y=0.845
C22615	A7#14	gnd!	4.21161e-18	$X=107.4465 $Y=0.95
C22616	XI1/net8#2	gnd!	6.22295e-18	$X=110.6315 $Y=0.8175
C22617	XI1/net7#2	gnd!	1.30882e-17	$X=110.8365 $Y=0.8175
C22618	XI1/XI5/net6#2	gnd!	7.13064e-18	$X=111.8615 $Y=0.8685
C22619	XI1/net6#2	gnd!	6.41395e-18	$X=112.6315 $Y=0.8175
C22620	XI1/net4#2	gnd!	1.36973e-17	$X=112.8365 $Y=0.8175
C22621	XI1/XI5/net3#2	gnd!	4.0635e-18	$X=113.8615 $Y=0.8685
C22622	XI1/XI5/net2#2	gnd!	6.14978e-18	$X=114.6315 $Y=0.8175
C22623	XI1/XI5/net5#2	gnd!	1.3031e-17	$X=114.8365 $Y=0.8175
C22624	XI1/XI5/net1#2	gnd!	3.68836e-18	$X=115.8615 $Y=0.8685
C22625	XI1/XI11/net1#2	gnd!	5.42198e-18	$X=117.3865 $Y=0.8985
C22626	XI1/net2#4	gnd!	4.37579e-18	$X=116.6915 $Y=0.899
C22627	XI1/net1#2	gnd!	6.6078e-18	$X=118.3165 $Y=0.9075
C22628	net14#12	gnd!	8.32029e-18	$X=118.7815 $Y=0.91
C22629	XI1/XI11/net6#2	gnd!	1.04301e-17	$X=119.4715 $Y=0.8125
C22630	B0#34	gnd!	6.89416e-17	$X=4.5245 $Y=0.3965
C22631	XI0/XI0/net5#26	gnd!	2.93438e-17	$X=9.3155 $Y=0.7055
C22632	XI0/XI0/net5#28	gnd!	1.02493e-17	$X=16.6095 $Y=1.4785
C22633	B1#34	gnd!	5.72832e-17	$X=17.1245 $Y=0.3965
C22634	XI0/XI0/net10#26	gnd!	3.01376e-17	$X=21.9065 $Y=0.7055
C22635	XI0/XI0/net10#28	gnd!	9.70089e-18	$X=29.2095 $Y=1.4785
C22636	B2#34	gnd!	5.52617e-17	$X=29.7245 $Y=0.394
C22637	XI0/XI0/net1#26	gnd!	2.1065e-17	$X=34.4965 $Y=0.7055
C22638	XI0/XI0/net1#28	gnd!	1.12651e-17	$X=41.8095 $Y=1.4785
C22639	B3#34	gnd!	5.46248e-17	$X=42.3245 $Y=0.3965
C22640	XI0/net1#16	gnd!	3.35263e-17	$X=47.09 $Y=0.603
C22641	Cin#28	gnd!	6.78823e-18	$X=4.0095 $Y=1.4785
C22642	B4#34	gnd!	7.37121e-17	$X=64.424 $Y=0.3965
C22643	XI1/XI0/net5#26	gnd!	2.93634e-17	$X=69.2145 $Y=0.7055
C22644	XI1/XI0/net5#28	gnd!	1.02493e-17	$X=76.509 $Y=1.4785
C22645	B5#34	gnd!	5.72677e-17	$X=77.024 $Y=0.3965
C22646	XI1/XI0/net10#26	gnd!	3.01434e-17	$X=81.8055 $Y=0.7055
C22647	XI1/XI0/net10#28	gnd!	9.70089e-18	$X=89.109 $Y=1.4785
C22648	B6#34	gnd!	5.52425e-17	$X=89.624 $Y=0.394
C22649	XI1/XI0/net1#26	gnd!	2.10826e-17	$X=94.3955 $Y=0.7055
C22650	XI1/XI0/net1#28	gnd!	1.12651e-17	$X=101.709 $Y=1.4785
C22651	B7#34	gnd!	5.46186e-17	$X=102.224 $Y=0.3965
C22652	XI1/net1#16	gnd!	3.3525e-17	$X=106.989 $Y=0.603
C22653	net14#34	gnd!	7.34685e-16	$X=61.0785 $Y=1.6395
C22654	net14#36	gnd!	5.39214e-18	$X=63.909 $Y=1.4785
C22655	A0#36	gnd!	3.46342e-17	$X=5.0045 $Y=1.3685
C22656	A1#36	gnd!	3.55442e-17	$X=17.6045 $Y=1.3685
C22657	A2#36	gnd!	2.10153e-17	$X=30.2045 $Y=1.3685
C22658	A3#36	gnd!	2.15061e-17	$X=42.8045 $Y=1.3685
C22659	A4#36	gnd!	3.16657e-17	$X=64.904 $Y=1.3685
C22660	A5#36	gnd!	3.22145e-17	$X=77.504 $Y=1.3685
C22661	A6#36	gnd!	1.97537e-17	$X=90.104 $Y=1.3685
C22662	A7#36	gnd!	2.04848e-17	$X=102.704 $Y=1.3685
*
*
.ENDS 8bit_CSA
*
