$DATA1 SOURCE='HSPICE' VERSION='L-2016.06 linux64' PARAM_COUNT=4
.TITLE 'spice pi wire delay'
 index            r                c1               c2              
                  r                f                temper          
                  alter#          
 1                 1.000e+03        1.000e-15        1.000e-15      
                   2.083e-12        1.839e-12         25.0000       
                 1               
 2                 1.000e+03        1.000e-15        1.520e-15      
                   2.083e-12        1.839e-12         25.0000       
                 1               
 3                 1.000e+03        1.000e-15        2.300e-15      
                   2.083e-12        1.839e-12         25.0000       
                 1               
 4                 1.000e+03        1.000e-15        3.480e-15      
                   2.083e-12        1.839e-12         25.0000       
                 1               
 5                 1.000e+03        1.000e-15        5.280e-15      
                   2.083e-12        1.839e-12         25.0000       
                 1               
 6                 1.000e+03        1.000e-15        8.000e-15      
                   2.083e-12        1.839e-12         25.0000       
                 1               
 7                 1.000e+03        1.230e-15        1.000e-15      
                   1.945e-12        2.003e-12         25.0000       
                 1               
 8                 1.000e+03        1.230e-15        1.520e-15      
                   1.945e-12        2.003e-12         25.0000       
                 1               
 9                 1.000e+03        1.230e-15        2.300e-15      
                   1.945e-12        2.003e-12         25.0000       
                 1               
 10                1.000e+03        1.230e-15        3.480e-15      
                   1.945e-12        2.003e-12         25.0000       
                 1               
 11                1.000e+03        1.230e-15        5.280e-15      
                   1.945e-12        2.003e-12         25.0000       
                 1               
 12                1.000e+03        1.230e-15        8.000e-15      
                   1.945e-12        2.003e-12         25.0000       
                 1               
 13                1.000e+03        1.520e-15        1.000e-15      
                   2.447e-12        2.591e-12         25.0000       
                 1               
 14                1.000e+03        1.520e-15        1.520e-15      
                   2.447e-12        2.591e-12         25.0000       
                 1               
 15                1.000e+03        1.520e-15        2.300e-15      
                   2.447e-12        2.591e-12         25.0000       
                 1               
 16                1.000e+03        1.520e-15        3.480e-15      
                   2.447e-12        2.591e-12         25.0000       
                 1               
 17                1.000e+03        1.520e-15        5.280e-15      
                   2.447e-12        2.591e-12         25.0000       
                 1               
 18                1.000e+03        1.520e-15        8.000e-15      
                   2.447e-12        2.591e-12         25.0000       
                 1               
 19                1.000e+03        1.870e-15        1.000e-15      
                   2.601e-12        2.831e-12         25.0000       
                 1               
 20                1.000e+03        1.870e-15        1.520e-15      
                   2.601e-12        2.831e-12         25.0000       
                 1               
 21                1.000e+03        1.870e-15        2.300e-15      
                   2.601e-12        2.831e-12         25.0000       
                 1               
 22                1.000e+03        1.870e-15        3.480e-15      
                   2.601e-12        2.831e-12         25.0000       
                 1               
 23                1.000e+03        1.870e-15        5.280e-15      
                   2.601e-12        2.831e-12         25.0000       
                 1               
 24                1.000e+03        1.870e-15        8.000e-15      
                   2.601e-12        2.831e-12         25.0000       
                 1               
 25                1.000e+03        2.300e-15        1.000e-15      
                   3.552e-12        3.194e-12         25.0000       
                 1               
 26                1.000e+03        2.300e-15        1.520e-15      
                   3.552e-12        3.194e-12         25.0000       
                 1               
 27                1.000e+03        2.300e-15        2.300e-15      
                   3.552e-12        3.194e-12         25.0000       
                 1               
 28                1.000e+03        2.300e-15        3.480e-15      
                   3.552e-12        3.194e-12         25.0000       
                 1               
 29                1.000e+03        2.300e-15        5.280e-15      
                   3.552e-12        3.194e-12         25.0000       
                 1               
 30                1.000e+03        2.300e-15        8.000e-15      
                   3.552e-12        3.194e-12         25.0000       
                 1               
 31                1.000e+03        2.830e-15        1.000e-15      
                   4.675e-12        3.664e-12         25.0000       
                 1               
 32                1.000e+03        2.830e-15        1.520e-15      
                   4.675e-12        3.664e-12         25.0000       
                 1               
 33                1.000e+03        2.830e-15        2.300e-15      
                   4.675e-12        3.664e-12         25.0000       
                 1               
 34                1.000e+03        2.830e-15        3.480e-15      
                   4.675e-12        3.664e-12         25.0000       
                 1               
 35                1.000e+03        2.830e-15        5.280e-15      
                   4.675e-12        3.664e-12         25.0000       
                 1               
 36                1.000e+03        2.830e-15        8.000e-15      
                   4.675e-12        3.664e-12         25.0000       
                 1               
 37                1.000e+03        3.480e-15        1.000e-15      
                   5.245e-12        4.249e-12         25.0000       
                 1               
 38                1.000e+03        3.480e-15        1.520e-15      
                   5.245e-12        4.249e-12         25.0000       
                 1               
 39                1.000e+03        3.480e-15        2.300e-15      
                   5.245e-12        4.249e-12         25.0000       
                 1               
 40                1.000e+03        3.480e-15        3.480e-15      
                   5.245e-12        4.249e-12         25.0000       
                 1               
 41                1.000e+03        3.480e-15        5.280e-15      
                   5.245e-12        4.249e-12         25.0000       
                 1               
 42                1.000e+03        3.480e-15        8.000e-15      
                   5.245e-12        4.249e-12         25.0000       
                 1               
 43                1.000e+03        4.290e-15        1.000e-15      
                   5.909e-12        5.503e-12         25.0000       
                 1               
 44                1.000e+03        4.290e-15        1.520e-15      
                   5.909e-12        5.503e-12         25.0000       
                 1               
 45                1.000e+03        4.290e-15        2.300e-15      
                   5.909e-12        5.503e-12         25.0000       
                 1               
 46                1.000e+03        4.290e-15        3.480e-15      
                   5.909e-12        5.503e-12         25.0000       
                 1               
 47                1.000e+03        4.290e-15        5.280e-15      
                   5.909e-12        5.503e-12         25.0000       
                 1               
 48                1.000e+03        4.290e-15        8.000e-15      
                   5.909e-12        5.503e-12         25.0000       
                 1               
 49                1.000e+03        5.280e-15        1.000e-15      
                   6.599e-12        6.243e-12         25.0000       
                 1               
 50                1.000e+03        5.280e-15        1.520e-15      
                   6.599e-12        6.243e-12         25.0000       
                 1               
 51                1.000e+03        5.280e-15        2.300e-15      
                   6.599e-12        6.243e-12         25.0000       
                 1               
 52                1.000e+03        5.280e-15        3.480e-15      
                   6.599e-12        6.243e-12         25.0000       
                 1               
 53                1.000e+03        5.280e-15        5.280e-15      
                   6.599e-12        6.243e-12         25.0000       
                 1               
 54                1.000e+03        5.280e-15        8.000e-15      
                   6.599e-12        6.243e-12         25.0000       
                 1               
 55                1.000e+03        6.500e-15        1.000e-15      
                   7.258e-12        7.251e-12         25.0000       
                 1               
 56                1.000e+03        6.500e-15        1.520e-15      
                   7.258e-12        7.251e-12         25.0000       
                 1               
 57                1.000e+03        6.500e-15        2.300e-15      
                   7.258e-12        7.251e-12         25.0000       
                 1               
 58                1.000e+03        6.500e-15        3.480e-15      
                   7.258e-12        7.251e-12         25.0000       
                 1               
 59                1.000e+03        6.500e-15        5.280e-15      
                   7.258e-12        7.251e-12         25.0000       
                 1               
 60                1.000e+03        6.500e-15        8.000e-15      
                   7.258e-12        7.251e-12         25.0000       
                 1               
 61                1.000e+03        8.000e-15        1.000e-15      
                   8.536e-12        8.566e-12         25.0000       
                 1               
 62                1.000e+03        8.000e-15        1.520e-15      
                   8.536e-12        8.566e-12         25.0000       
                 1               
 63                1.000e+03        8.000e-15        2.300e-15      
                   8.536e-12        8.566e-12         25.0000       
                 1               
 64                1.000e+03        8.000e-15        3.480e-15      
                   8.536e-12        8.566e-12         25.0000       
                 1               
 65                1.000e+03        8.000e-15        5.280e-15      
                   8.536e-12        8.566e-12         25.0000       
                 1               
 66                1.000e+03        8.000e-15        8.000e-15      
                   8.536e-12        8.566e-12         25.0000       
                 1               
 67                2.000e+03        1.000e-15        1.000e-15      
                   3.611e-12        3.588e-12         25.0000       
                 1               
 68                2.000e+03        1.000e-15        1.520e-15      
                   3.611e-12        3.588e-12         25.0000       
                 1               
 69                2.000e+03        1.000e-15        2.300e-15      
                   3.611e-12        3.588e-12         25.0000       
                 1               
 70                2.000e+03        1.000e-15        3.480e-15      
                   3.611e-12        3.588e-12         25.0000       
                 1               
 71                2.000e+03        1.000e-15        5.280e-15      
                   3.611e-12        3.588e-12         25.0000       
                 1               
 72                2.000e+03        1.000e-15        8.000e-15      
                   3.611e-12        3.588e-12         25.0000       
                 1               
 73                2.000e+03        1.230e-15        1.000e-15      
                   4.530e-12        4.428e-12         25.0000       
                 1               
 74                2.000e+03        1.230e-15        1.520e-15      
                   4.530e-12        4.428e-12         25.0000       
                 1               
 75                2.000e+03        1.230e-15        2.300e-15      
                   4.530e-12        4.428e-12         25.0000       
                 1               
 76                2.000e+03        1.230e-15        3.480e-15      
                   4.530e-12        4.428e-12         25.0000       
                 1               
 77                2.000e+03        1.230e-15        5.280e-15      
                   4.530e-12        4.428e-12         25.0000       
                 1               
 78                2.000e+03        1.230e-15        8.000e-15      
                   4.530e-12        4.428e-12         25.0000       
                 1               
 79                2.000e+03        1.520e-15        1.000e-15      
                   4.861e-12        5.246e-12         25.0000       
                 1               
 80                2.000e+03        1.520e-15        1.520e-15      
                   4.861e-12        5.246e-12         25.0000       
                 1               
 81                2.000e+03        1.520e-15        2.300e-15      
                   4.861e-12        5.246e-12         25.0000       
                 1               
 82                2.000e+03        1.520e-15        3.480e-15      
                   4.861e-12        5.246e-12         25.0000       
                 1               
 83                2.000e+03        1.520e-15        5.280e-15      
                   4.861e-12        5.246e-12         25.0000       
                 1               
 84                2.000e+03        1.520e-15        8.000e-15      
                   4.861e-12        5.246e-12         25.0000       
                 1               
 85                2.000e+03        1.870e-15        1.000e-15      
                   5.246e-12        5.775e-12         25.0000       
                 1               
 86                2.000e+03        1.870e-15        1.520e-15      
                   5.246e-12        5.775e-12         25.0000       
                 1               
 87                2.000e+03        1.870e-15        2.300e-15      
                   5.246e-12        5.775e-12         25.0000       
                 1               
 88                2.000e+03        1.870e-15        3.480e-15      
                   5.246e-12        5.775e-12         25.0000       
                 1               
 89                2.000e+03        1.870e-15        5.280e-15      
                   5.246e-12        5.775e-12         25.0000       
                 1               
 90                2.000e+03        1.870e-15        8.000e-15      
                   5.246e-12        5.775e-12         25.0000       
                 1               
 91                2.000e+03        2.300e-15        1.000e-15      
                   6.020e-12        6.371e-12         25.0000       
                 1               
 92                2.000e+03        2.300e-15        1.520e-15      
                   6.020e-12        6.371e-12         25.0000       
                 1               
 93                2.000e+03        2.300e-15        2.300e-15      
                   6.020e-12        6.371e-12         25.0000       
                 1               
 94                2.000e+03        2.300e-15        3.480e-15      
                   6.020e-12        6.371e-12         25.0000       
                 1               
 95                2.000e+03        2.300e-15        5.280e-15      
                   6.020e-12        6.371e-12         25.0000       
                 1               
 96                2.000e+03        2.300e-15        8.000e-15      
                   6.020e-12        6.371e-12         25.0000       
                 1               
 97                2.000e+03        2.830e-15        1.000e-15      
                   8.424e-12        7.277e-12         25.0000       
                 1               
 98                2.000e+03        2.830e-15        1.520e-15      
                   8.424e-12        7.277e-12         25.0000       
                 1               
 99                2.000e+03        2.830e-15        2.300e-15      
                   8.424e-12        7.277e-12         25.0000       
                 1               
 100               2.000e+03        2.830e-15        3.480e-15      
                   8.424e-12        7.277e-12         25.0000       
                 1               
 101               2.000e+03        2.830e-15        5.280e-15      
                   8.424e-12        7.277e-12         25.0000       
                 1               
 102               2.000e+03        2.830e-15        8.000e-15      
                   8.424e-12        7.277e-12         25.0000       
                 1               
 103               2.000e+03        3.480e-15        1.000e-15      
                   9.620e-12        9.424e-12         25.0000       
                 1               
 104               2.000e+03        3.480e-15        1.520e-15      
                   9.620e-12        9.424e-12         25.0000       
                 1               
 105               2.000e+03        3.480e-15        2.300e-15      
                   9.620e-12        9.424e-12         25.0000       
                 1               
 106               2.000e+03        3.480e-15        3.480e-15      
                   9.620e-12        9.424e-12         25.0000       
                 1               
 107               2.000e+03        3.480e-15        5.280e-15      
                   9.620e-12        9.424e-12         25.0000       
                 1               
 108               2.000e+03        3.480e-15        8.000e-15      
                   9.620e-12        9.424e-12         25.0000       
                 1               
 109               2.000e+03        4.290e-15        1.000e-15      
                   1.104e-11        1.072e-11         25.0000       
                 1               
 110               2.000e+03        4.290e-15        1.520e-15      
                   1.104e-11        1.072e-11         25.0000       
                 1               
 111               2.000e+03        4.290e-15        2.300e-15      
                   1.104e-11        1.072e-11         25.0000       
                 1               
 112               2.000e+03        4.290e-15        3.480e-15      
                   1.104e-11        1.072e-11         25.0000       
                 1               
 113               2.000e+03        4.290e-15        5.280e-15      
                   1.104e-11        1.072e-11         25.0000       
                 1               
 114               2.000e+03        4.290e-15        8.000e-15      
                   1.104e-11        1.072e-11         25.0000       
                 1               
 115               2.000e+03        5.280e-15        1.000e-15      
                   1.255e-11        1.248e-11         25.0000       
                 1               
 116               2.000e+03        5.280e-15        1.520e-15      
                   1.255e-11        1.248e-11         25.0000       
                 1               
 117               2.000e+03        5.280e-15        2.300e-15      
                   1.255e-11        1.248e-11         25.0000       
                 1               
 118               2.000e+03        5.280e-15        3.480e-15      
                   1.255e-11        1.248e-11         25.0000       
                 1               
 119               2.000e+03        5.280e-15        5.280e-15      
                   1.255e-11        1.248e-11         25.0000       
                 1               
 120               2.000e+03        5.280e-15        8.000e-15      
                   1.255e-11        1.248e-11         25.0000       
                 1               
 121               2.000e+03        6.500e-15        1.000e-15      
                   1.470e-11        1.445e-11         25.0000       
                 1               
 122               2.000e+03        6.500e-15        1.520e-15      
                   1.470e-11        1.445e-11         25.0000       
                 1               
 123               2.000e+03        6.500e-15        2.300e-15      
                   1.470e-11        1.445e-11         25.0000       
                 1               
 124               2.000e+03        6.500e-15        3.480e-15      
                   1.470e-11        1.445e-11         25.0000       
                 1               
 125               2.000e+03        6.500e-15        5.280e-15      
                   1.470e-11        1.445e-11         25.0000       
                 1               
 126               2.000e+03        6.500e-15        8.000e-15      
                   1.470e-11        1.445e-11         25.0000       
                 1               
 127               2.000e+03        8.000e-15        1.000e-15      
                   2.173e-11        1.904e-11         25.0000       
                 1               
 128               2.000e+03        8.000e-15        1.520e-15      
                   2.173e-11        1.904e-11         25.0000       
                 1               
 129               2.000e+03        8.000e-15        2.300e-15      
                   2.173e-11        1.904e-11         25.0000       
                 1               
 130               2.000e+03        8.000e-15        3.480e-15      
                   2.173e-11        1.904e-11         25.0000       
                 1               
 131               2.000e+03        8.000e-15        5.280e-15      
                   2.173e-11        1.904e-11         25.0000       
                 1               
 132               2.000e+03        8.000e-15        8.000e-15      
                   2.173e-11        1.904e-11         25.0000       
                 1               
 133               3.000e+03        1.000e-15        1.000e-15      
                   5.959e-12        5.732e-12         25.0000       
                 1               
 134               3.000e+03        1.000e-15        1.520e-15      
                   5.959e-12        5.732e-12         25.0000       
                 1               
 135               3.000e+03        1.000e-15        2.300e-15      
                   5.959e-12        5.732e-12         25.0000       
                 1               
 136               3.000e+03        1.000e-15        3.480e-15      
                   5.959e-12        5.732e-12         25.0000       
                 1               
 137               3.000e+03        1.000e-15        5.280e-15      
                   5.959e-12        5.732e-12         25.0000       
                 1               
 138               3.000e+03        1.000e-15        8.000e-15      
                   5.959e-12        5.732e-12         25.0000       
                 1               
 139               3.000e+03        1.230e-15        1.000e-15      
                   6.860e-12        6.804e-12         25.0000       
                 1               
 140               3.000e+03        1.230e-15        1.520e-15      
                   6.860e-12        6.804e-12         25.0000       
                 1               
 141               3.000e+03        1.230e-15        2.300e-15      
                   6.860e-12        6.804e-12         25.0000       
                 1               
 142               3.000e+03        1.230e-15        3.480e-15      
                   6.860e-12        6.804e-12         25.0000       
                 1               
 143               3.000e+03        1.230e-15        5.280e-15      
                   6.860e-12        6.804e-12         25.0000       
                 1               
 144               3.000e+03        1.230e-15        8.000e-15      
                   6.860e-12        6.804e-12         25.0000       
                 1               
 145               3.000e+03        1.520e-15        1.000e-15      
                   7.682e-12        7.829e-12         25.0000       
                 1               
 146               3.000e+03        1.520e-15        1.520e-15      
                   7.682e-12        7.829e-12         25.0000       
                 1               
 147               3.000e+03        1.520e-15        2.300e-15      
                   7.682e-12        7.829e-12         25.0000       
                 1               
 148               3.000e+03        1.520e-15        3.480e-15      
                   7.682e-12        7.829e-12         25.0000       
                 1               
 149               3.000e+03        1.520e-15        5.280e-15      
                   7.682e-12        7.829e-12         25.0000       
                 1               
 150               3.000e+03        1.520e-15        8.000e-15      
                   7.682e-12        7.829e-12         25.0000       
                 1               
 151               3.000e+03        1.870e-15        1.000e-15      
                   8.500e-12        8.561e-12         25.0000       
                 1               
 152               3.000e+03        1.870e-15        1.520e-15      
                   8.500e-12        8.561e-12         25.0000       
                 1               
 153               3.000e+03        1.870e-15        2.300e-15      
                   8.500e-12        8.561e-12         25.0000       
                 1               
 154               3.000e+03        1.870e-15        3.480e-15      
                   8.500e-12        8.561e-12         25.0000       
                 1               
 155               3.000e+03        1.870e-15        5.280e-15      
                   8.500e-12        8.561e-12         25.0000       
                 1               
 156               3.000e+03        1.870e-15        8.000e-15      
                   8.500e-12        8.561e-12         25.0000       
                 1               
 157               3.000e+03        2.300e-15        1.000e-15      
                   9.473e-12        9.561e-12         25.0000       
                 1               
 158               3.000e+03        2.300e-15        1.520e-15      
                   9.473e-12        9.561e-12         25.0000       
                 1               
 159               3.000e+03        2.300e-15        2.300e-15      
                   9.473e-12        9.561e-12         25.0000       
                 1               
 160               3.000e+03        2.300e-15        3.480e-15      
                   9.473e-12        9.561e-12         25.0000       
                 1               
 161               3.000e+03        2.300e-15        5.280e-15      
                   9.473e-12        9.561e-12         25.0000       
                 1               
 162               3.000e+03        2.300e-15        8.000e-15      
                   9.473e-12        9.561e-12         25.0000       
                 1               
 163               3.000e+03        2.830e-15        1.000e-15      
                   1.271e-11        1.151e-11         25.0000       
                 1               
 164               3.000e+03        2.830e-15        1.520e-15      
                   1.271e-11        1.151e-11         25.0000       
                 1               
 165               3.000e+03        2.830e-15        2.300e-15      
                   1.271e-11        1.151e-11         25.0000       
                 1               
 166               3.000e+03        2.830e-15        3.480e-15      
                   1.271e-11        1.151e-11         25.0000       
                 1               
 167               3.000e+03        2.830e-15        5.280e-15      
                   1.271e-11        1.151e-11         25.0000       
                 1               
 168               3.000e+03        2.830e-15        8.000e-15      
                   1.271e-11        1.151e-11         25.0000       
                 1               
 169               3.000e+03        3.480e-15        1.000e-15      
                   1.488e-11        1.407e-11         25.0000       
                 1               
 170               3.000e+03        3.480e-15        1.520e-15      
                   1.488e-11        1.407e-11         25.0000       
                 1               
 171               3.000e+03        3.480e-15        2.300e-15      
                   1.488e-11        1.407e-11         25.0000       
                 1               
 172               3.000e+03        3.480e-15        3.480e-15      
                   1.488e-11        1.407e-11         25.0000       
                 1               
 173               3.000e+03        3.480e-15        5.280e-15      
                   1.488e-11        1.407e-11         25.0000       
                 1               
 174               3.000e+03        3.480e-15        8.000e-15      
                   1.488e-11        1.407e-11         25.0000       
                 1               
 175               3.000e+03        4.290e-15        1.000e-15      
                   1.738e-11        1.634e-11         25.0000       
                 1               
 176               3.000e+03        4.290e-15        1.520e-15      
                   1.738e-11        1.634e-11         25.0000       
                 1               
 177               3.000e+03        4.290e-15        2.300e-15      
                   1.738e-11        1.634e-11         25.0000       
                 1               
 178               3.000e+03        4.290e-15        3.480e-15      
                   1.738e-11        1.634e-11         25.0000       
                 1               
 179               3.000e+03        4.290e-15        5.280e-15      
                   1.738e-11        1.634e-11         25.0000       
                 1               
 180               3.000e+03        4.290e-15        8.000e-15      
                   1.738e-11        1.634e-11         25.0000       
                 1               
 181               3.000e+03        5.280e-15        1.000e-15      
                   1.987e-11        1.868e-11         25.0000       
                 1               
 182               3.000e+03        5.280e-15        1.520e-15      
                   1.987e-11        1.868e-11         25.0000       
                 1               
 183               3.000e+03        5.280e-15        2.300e-15      
                   1.987e-11        1.868e-11         25.0000       
                 1               
 184               3.000e+03        5.280e-15        3.480e-15      
                   1.987e-11        1.868e-11         25.0000       
                 1               
 185               3.000e+03        5.280e-15        5.280e-15      
                   1.987e-11        1.868e-11         25.0000       
                 1               
 186               3.000e+03        5.280e-15        8.000e-15      
                   1.987e-11        1.868e-11         25.0000       
                 1               
 187               3.000e+03        6.500e-15        1.000e-15      
                   2.264e-11        2.289e-11         25.0000       
                 1               
 188               3.000e+03        6.500e-15        1.520e-15      
                   2.264e-11        2.289e-11         25.0000       
                 1               
 189               3.000e+03        6.500e-15        2.300e-15      
                   2.264e-11        2.289e-11         25.0000       
                 1               
 190               3.000e+03        6.500e-15        3.480e-15      
                   2.264e-11        2.289e-11         25.0000       
                 1               
 191               3.000e+03        6.500e-15        5.280e-15      
                   2.264e-11        2.289e-11         25.0000       
                 1               
 192               3.000e+03        6.500e-15        8.000e-15      
                   2.264e-11        2.289e-11         25.0000       
                 1               
 193               3.000e+03        8.000e-15        1.000e-15      
                   3.102e-11        2.834e-11         25.0000       
                 1               
 194               3.000e+03        8.000e-15        1.520e-15      
                   3.102e-11        2.834e-11         25.0000       
                 1               
 195               3.000e+03        8.000e-15        2.300e-15      
                   3.102e-11        2.834e-11         25.0000       
                 1               
 196               3.000e+03        8.000e-15        3.480e-15      
                   3.102e-11        2.834e-11         25.0000       
                 1               
 197               3.000e+03        8.000e-15        5.280e-15      
                   3.102e-11        2.834e-11         25.0000       
                 1               
 198               3.000e+03        8.000e-15        8.000e-15      
                   3.102e-11        2.834e-11         25.0000       
                 1               
 199               4.000e+03        1.000e-15        1.000e-15      
                   8.013e-12        7.751e-12         25.0000       
                 1               
 200               4.000e+03        1.000e-15        1.520e-15      
                   8.013e-12        7.751e-12         25.0000       
                 1               
 201               4.000e+03        1.000e-15        2.300e-15      
                   8.013e-12        7.751e-12         25.0000       
                 1               
 202               4.000e+03        1.000e-15        3.480e-15      
                   8.013e-12        7.751e-12         25.0000       
                 1               
 203               4.000e+03        1.000e-15        5.280e-15      
                   8.013e-12        7.751e-12         25.0000       
                 1               
 204               4.000e+03        1.000e-15        8.000e-15      
                   8.013e-12        7.751e-12         25.0000       
                 1               
 205               4.000e+03        1.230e-15        1.000e-15      
                   9.067e-12        8.854e-12         25.0000       
                 1               
 206               4.000e+03        1.230e-15        1.520e-15      
                   9.067e-12        8.854e-12         25.0000       
                 1               
 207               4.000e+03        1.230e-15        2.300e-15      
                   9.067e-12        8.854e-12         25.0000       
                 1               
 208               4.000e+03        1.230e-15        3.480e-15      
                   9.067e-12        8.854e-12         25.0000       
                 1               
 209               4.000e+03        1.230e-15        5.280e-15      
                   9.067e-12        8.854e-12         25.0000       
                 1               
 210               4.000e+03        1.230e-15        8.000e-15      
                   9.067e-12        8.854e-12         25.0000       
                 1               
 211               4.000e+03        1.520e-15        1.000e-15      
                   1.038e-11        1.015e-11         25.0000       
                 1               
 212               4.000e+03        1.520e-15        1.520e-15      
                   1.038e-11        1.015e-11         25.0000       
                 1               
 213               4.000e+03        1.520e-15        2.300e-15      
                   1.038e-11        1.015e-11         25.0000       
                 1               
 214               4.000e+03        1.520e-15        3.480e-15      
                   1.038e-11        1.015e-11         25.0000       
                 1               
 215               4.000e+03        1.520e-15        5.280e-15      
                   1.038e-11        1.015e-11         25.0000       
                 1               
 216               4.000e+03        1.520e-15        8.000e-15      
                   1.038e-11        1.015e-11         25.0000       
                 1               
 217               4.000e+03        1.870e-15        1.000e-15      
                   1.167e-11        1.161e-11         25.0000       
                 1               
 218               4.000e+03        1.870e-15        1.520e-15      
                   1.167e-11        1.161e-11         25.0000       
                 1               
 219               4.000e+03        1.870e-15        2.300e-15      
                   1.167e-11        1.161e-11         25.0000       
                 1               
 220               4.000e+03        1.870e-15        3.480e-15      
                   1.167e-11        1.161e-11         25.0000       
                 1               
 221               4.000e+03        1.870e-15        5.280e-15      
                   1.167e-11        1.161e-11         25.0000       
                 1               
 222               4.000e+03        1.870e-15        8.000e-15      
                   1.167e-11        1.161e-11         25.0000       
                 1               
 223               4.000e+03        2.300e-15        1.000e-15      
                   1.300e-11        1.298e-11         25.0000       
                 1               
 224               4.000e+03        2.300e-15        1.520e-15      
                   1.300e-11        1.298e-11         25.0000       
                 1               
 225               4.000e+03        2.300e-15        2.300e-15      
                   1.300e-11        1.298e-11         25.0000       
                 1               
 226               4.000e+03        2.300e-15        3.480e-15      
                   1.300e-11        1.298e-11         25.0000       
                 1               
 227               4.000e+03        2.300e-15        5.280e-15      
                   1.300e-11        1.298e-11         25.0000       
                 1               
 228               4.000e+03        2.300e-15        8.000e-15      
                   1.300e-11        1.298e-11         25.0000       
                 1               
 229               4.000e+03        2.830e-15        1.000e-15      
                   1.634e-11        1.548e-11         25.0000       
                 1               
 230               4.000e+03        2.830e-15        1.520e-15      
                   1.634e-11        1.548e-11         25.0000       
                 1               
 231               4.000e+03        2.830e-15        2.300e-15      
                   1.634e-11        1.548e-11         25.0000       
                 1               
 232               4.000e+03        2.830e-15        3.480e-15      
                   1.634e-11        1.548e-11         25.0000       
                 1               
 233               4.000e+03        2.830e-15        5.280e-15      
                   1.634e-11        1.548e-11         25.0000       
                 1               
 234               4.000e+03        2.830e-15        8.000e-15      
                   1.634e-11        1.548e-11         25.0000       
                 1               
 235               4.000e+03        3.480e-15        1.000e-15      
                   1.961e-11        1.873e-11         25.0000       
                 1               
 236               4.000e+03        3.480e-15        1.520e-15      
                   1.961e-11        1.873e-11         25.0000       
                 1               
 237               4.000e+03        3.480e-15        2.300e-15      
                   1.961e-11        1.873e-11         25.0000       
                 1               
 238               4.000e+03        3.480e-15        3.480e-15      
                   1.961e-11        1.873e-11         25.0000       
                 1               
 239               4.000e+03        3.480e-15        5.280e-15      
                   1.961e-11        1.873e-11         25.0000       
                 1               
 240               4.000e+03        3.480e-15        8.000e-15      
                   1.961e-11        1.873e-11         25.0000       
                 1               
 241               4.000e+03        4.290e-15        1.000e-15      
                   2.360e-11        2.204e-11         25.0000       
                 1               
 242               4.000e+03        4.290e-15        1.520e-15      
                   2.360e-11        2.204e-11         25.0000       
                 1               
 243               4.000e+03        4.290e-15        2.300e-15      
                   2.360e-11        2.204e-11         25.0000       
                 1               
 244               4.000e+03        4.290e-15        3.480e-15      
                   2.360e-11        2.204e-11         25.0000       
                 1               
 245               4.000e+03        4.290e-15        5.280e-15      
                   2.360e-11        2.204e-11         25.0000       
                 1               
 246               4.000e+03        4.290e-15        8.000e-15      
                   2.360e-11        2.204e-11         25.0000       
                 1               
 247               4.000e+03        5.280e-15        1.000e-15      
                   2.683e-11        2.535e-11         25.0000       
                 1               
 248               4.000e+03        5.280e-15        1.520e-15      
                   2.683e-11        2.535e-11         25.0000       
                 1               
 249               4.000e+03        5.280e-15        2.300e-15      
                   2.683e-11        2.535e-11         25.0000       
                 1               
 250               4.000e+03        5.280e-15        3.480e-15      
                   2.683e-11        2.535e-11         25.0000       
                 1               
 251               4.000e+03        5.280e-15        5.280e-15      
                   2.683e-11        2.535e-11         25.0000       
                 1               
 252               4.000e+03        5.280e-15        8.000e-15      
                   2.683e-11        2.535e-11         25.0000       
                 1               
 253               4.000e+03        6.500e-15        1.000e-15      
                   3.058e-11        3.083e-11         25.0000       
                 1               
 254               4.000e+03        6.500e-15        1.520e-15      
                   3.058e-11        3.083e-11         25.0000       
                 1               
 255               4.000e+03        6.500e-15        2.300e-15      
                   3.058e-11        3.083e-11         25.0000       
                 1               
 256               4.000e+03        6.500e-15        3.480e-15      
                   3.058e-11        3.083e-11         25.0000       
                 1               
 257               4.000e+03        6.500e-15        5.280e-15      
                   3.058e-11        3.083e-11         25.0000       
                 1               
 258               4.000e+03        6.500e-15        8.000e-15      
                   3.058e-11        3.083e-11         25.0000       
                 1               
 259               4.000e+03        8.000e-15        1.000e-15      
                   3.967e-11        3.759e-11         25.0000       
                 1               
 260               4.000e+03        8.000e-15        1.520e-15      
                   3.967e-11        3.759e-11         25.0000       
                 1               
 261               4.000e+03        8.000e-15        2.300e-15      
                   3.967e-11        3.759e-11         25.0000       
                 1               
 262               4.000e+03        8.000e-15        3.480e-15      
                   3.967e-11        3.759e-11         25.0000       
                 1               
 263               4.000e+03        8.000e-15        5.280e-15      
                   3.967e-11        3.759e-11         25.0000       
                 1               
 264               4.000e+03        8.000e-15        8.000e-15      
                   3.967e-11        3.759e-11         25.0000       
                 1               
 265               5.000e+03        1.000e-15        1.000e-15      
                   1.008e-11        9.745e-12         25.0000       
                 1               
 266               5.000e+03        1.000e-15        1.520e-15      
                   1.008e-11        9.745e-12         25.0000       
                 1               
 267               5.000e+03        1.000e-15        2.300e-15      
                   1.008e-11        9.745e-12         25.0000       
                 1               
 268               5.000e+03        1.000e-15        3.480e-15      
                   1.008e-11        9.745e-12         25.0000       
                 1               
 269               5.000e+03        1.000e-15        5.280e-15      
                   1.008e-11        9.745e-12         25.0000       
                 1               
 270               5.000e+03        1.000e-15        8.000e-15      
                   1.008e-11        9.745e-12         25.0000       
                 1               
 271               5.000e+03        1.230e-15        1.000e-15      
                   1.141e-11        1.102e-11         25.0000       
                 1               
 272               5.000e+03        1.230e-15        1.520e-15      
                   1.141e-11        1.102e-11         25.0000       
                 1               
 273               5.000e+03        1.230e-15        2.300e-15      
                   1.141e-11        1.102e-11         25.0000       
                 1               
 274               5.000e+03        1.230e-15        3.480e-15      
                   1.141e-11        1.102e-11         25.0000       
                 1               
 275               5.000e+03        1.230e-15        5.280e-15      
                   1.141e-11        1.102e-11         25.0000       
                 1               
 276               5.000e+03        1.230e-15        8.000e-15      
                   1.141e-11        1.102e-11         25.0000       
                 1               
 277               5.000e+03        1.520e-15        1.000e-15      
                   1.299e-11        1.257e-11         25.0000       
                 1               
 278               5.000e+03        1.520e-15        1.520e-15      
                   1.299e-11        1.257e-11         25.0000       
                 1               
 279               5.000e+03        1.520e-15        2.300e-15      
                   1.299e-11        1.257e-11         25.0000       
                 1               
 280               5.000e+03        1.520e-15        3.480e-15      
                   1.299e-11        1.257e-11         25.0000       
                 1               
 281               5.000e+03        1.520e-15        5.280e-15      
                   1.299e-11        1.257e-11         25.0000       
                 1               
 282               5.000e+03        1.520e-15        8.000e-15      
                   1.299e-11        1.257e-11         25.0000       
                 1               
 283               5.000e+03        1.870e-15        1.000e-15      
                   1.488e-11        1.439e-11         25.0000       
                 1               
 284               5.000e+03        1.870e-15        1.520e-15      
                   1.488e-11        1.439e-11         25.0000       
                 1               
 285               5.000e+03        1.870e-15        2.300e-15      
                   1.488e-11        1.439e-11         25.0000       
                 1               
 286               5.000e+03        1.870e-15        3.480e-15      
                   1.488e-11        1.439e-11         25.0000       
                 1               
 287               5.000e+03        1.870e-15        5.280e-15      
                   1.488e-11        1.439e-11         25.0000       
                 1               
 288               5.000e+03        1.870e-15        8.000e-15      
                   1.488e-11        1.439e-11         25.0000       
                 1               
 289               5.000e+03        2.300e-15        1.000e-15      
                   1.678e-11        1.661e-11         25.0000       
                 1               
 290               5.000e+03        2.300e-15        1.520e-15      
                   1.678e-11        1.661e-11         25.0000       
                 1               
 291               5.000e+03        2.300e-15        2.300e-15      
                   1.678e-11        1.661e-11         25.0000       
                 1               
 292               5.000e+03        2.300e-15        3.480e-15      
                   1.678e-11        1.661e-11         25.0000       
                 1               
 293               5.000e+03        2.300e-15        5.280e-15      
                   1.678e-11        1.661e-11         25.0000       
                 1               
 294               5.000e+03        2.300e-15        8.000e-15      
                   1.678e-11        1.661e-11         25.0000       
                 1               
 295               5.000e+03        2.830e-15        1.000e-15      
                   2.050e-11        1.957e-11         25.0000       
                 1               
 296               5.000e+03        2.830e-15        1.520e-15      
                   2.050e-11        1.957e-11         25.0000       
                 1               
 297               5.000e+03        2.830e-15        2.300e-15      
                   2.050e-11        1.957e-11         25.0000       
                 1               
 298               5.000e+03        2.830e-15        3.480e-15      
                   2.050e-11        1.957e-11         25.0000       
                 1               
 299               5.000e+03        2.830e-15        5.280e-15      
                   2.050e-11        1.957e-11         25.0000       
                 1               
 300               5.000e+03        2.830e-15        8.000e-15      
                   2.050e-11        1.957e-11         25.0000       
                 1               
 301               5.000e+03        3.480e-15        1.000e-15      
                   2.437e-11        2.322e-11         25.0000       
                 1               
 302               5.000e+03        3.480e-15        1.520e-15      
                   2.437e-11        2.322e-11         25.0000       
                 1               
 303               5.000e+03        3.480e-15        2.300e-15      
                   2.437e-11        2.322e-11         25.0000       
                 1               
 304               5.000e+03        3.480e-15        3.480e-15      
                   2.437e-11        2.322e-11         25.0000       
                 1               
 305               5.000e+03        3.480e-15        5.280e-15      
                   2.437e-11        2.322e-11         25.0000       
                 1               
 306               5.000e+03        3.480e-15        8.000e-15      
                   2.437e-11        2.322e-11         25.0000       
                 1               
 307               5.000e+03        4.290e-15        1.000e-15      
                   2.894e-11        2.745e-11         25.0000       
                 1               
 308               5.000e+03        4.290e-15        1.520e-15      
                   2.894e-11        2.745e-11         25.0000       
                 1               
 309               5.000e+03        4.290e-15        2.300e-15      
                   2.894e-11        2.745e-11         25.0000       
                 1               
 310               5.000e+03        4.290e-15        3.480e-15      
                   2.894e-11        2.745e-11         25.0000       
                 1               
 311               5.000e+03        4.290e-15        5.280e-15      
                   2.894e-11        2.745e-11         25.0000       
                 1               
 312               5.000e+03        4.290e-15        8.000e-15      
                   2.894e-11        2.745e-11         25.0000       
                 1               
 313               5.000e+03        5.280e-15        1.000e-15      
                   3.442e-11        3.252e-11         25.0000       
                 1               
 314               5.000e+03        5.280e-15        1.520e-15      
                   3.442e-11        3.252e-11         25.0000       
                 1               
 315               5.000e+03        5.280e-15        2.300e-15      
                   3.442e-11        3.252e-11         25.0000       
                 1               
 316               5.000e+03        5.280e-15        3.480e-15      
                   3.442e-11        3.252e-11         25.0000       
                 1               
 317               5.000e+03        5.280e-15        5.280e-15      
                   3.442e-11        3.252e-11         25.0000       
                 1               
 318               5.000e+03        5.280e-15        8.000e-15      
                   3.442e-11        3.252e-11         25.0000       
                 1               
 319               5.000e+03        6.500e-15        1.000e-15      
                   4.082e-11        3.901e-11         25.0000       
                 1               
 320               5.000e+03        6.500e-15        1.520e-15      
                   4.082e-11        3.901e-11         25.0000       
                 1               
 321               5.000e+03        6.500e-15        2.300e-15      
                   4.082e-11        3.901e-11         25.0000       
                 1               
 322               5.000e+03        6.500e-15        3.480e-15      
                   4.082e-11        3.901e-11         25.0000       
                 1               
 323               5.000e+03        6.500e-15        5.280e-15      
                   4.082e-11        3.901e-11         25.0000       
                 1               
 324               5.000e+03        6.500e-15        8.000e-15      
                   4.082e-11        3.901e-11         25.0000       
                 1               
 325               5.000e+03        8.000e-15        1.000e-15      
                   4.916e-11        4.723e-11         25.0000       
                 1               
 326               5.000e+03        8.000e-15        1.520e-15      
                   4.916e-11        4.723e-11         25.0000       
                 1               
 327               5.000e+03        8.000e-15        2.300e-15      
                   4.916e-11        4.723e-11         25.0000       
                 1               
 328               5.000e+03        8.000e-15        3.480e-15      
                   4.916e-11        4.723e-11         25.0000       
                 1               
 329               5.000e+03        8.000e-15        5.280e-15      
                   4.916e-11        4.723e-11         25.0000       
                 1               
 330               5.000e+03        8.000e-15        8.000e-15      
                   4.916e-11        4.723e-11         25.0000       
                 1               
 331               6.000e+03        1.000e-15        1.000e-15      
                   1.242e-11        1.179e-11         25.0000       
                 1               
 332               6.000e+03        1.000e-15        1.520e-15      
                   1.242e-11        1.179e-11         25.0000       
                 1               
 333               6.000e+03        1.000e-15        2.300e-15      
                   1.242e-11        1.179e-11         25.0000       
                 1               
 334               6.000e+03        1.000e-15        3.480e-15      
                   1.242e-11        1.179e-11         25.0000       
                 1               
 335               6.000e+03        1.000e-15        5.280e-15      
                   1.242e-11        1.179e-11         25.0000       
                 1               
 336               6.000e+03        1.000e-15        8.000e-15      
                   1.242e-11        1.179e-11         25.0000       
                 1               
 337               6.000e+03        1.230e-15        1.000e-15      
                   1.389e-11        1.328e-11         25.0000       
                 1               
 338               6.000e+03        1.230e-15        1.520e-15      
                   1.389e-11        1.328e-11         25.0000       
                 1               
 339               6.000e+03        1.230e-15        2.300e-15      
                   1.389e-11        1.328e-11         25.0000       
                 1               
 340               6.000e+03        1.230e-15        3.480e-15      
                   1.389e-11        1.328e-11         25.0000       
                 1               
 341               6.000e+03        1.230e-15        5.280e-15      
                   1.389e-11        1.328e-11         25.0000       
                 1               
 342               6.000e+03        1.230e-15        8.000e-15      
                   1.389e-11        1.328e-11         25.0000       
                 1               
 343               6.000e+03        1.520e-15        1.000e-15      
                   1.571e-11        1.506e-11         25.0000       
                 1               
 344               6.000e+03        1.520e-15        1.520e-15      
                   1.571e-11        1.506e-11         25.0000       
                 1               
 345               6.000e+03        1.520e-15        2.300e-15      
                   1.571e-11        1.506e-11         25.0000       
                 1               
 346               6.000e+03        1.520e-15        3.480e-15      
                   1.571e-11        1.506e-11         25.0000       
                 1               
 347               6.000e+03        1.520e-15        5.280e-15      
                   1.571e-11        1.506e-11         25.0000       
                 1               
 348               6.000e+03        1.520e-15        8.000e-15      
                   1.571e-11        1.506e-11         25.0000       
                 1               
 349               6.000e+03        1.870e-15        1.000e-15      
                   1.791e-11        1.721e-11         25.0000       
                 1               
 350               6.000e+03        1.870e-15        1.520e-15      
                   1.791e-11        1.721e-11         25.0000       
                 1               
 351               6.000e+03        1.870e-15        2.300e-15      
                   1.791e-11        1.721e-11         25.0000       
                 1               
 352               6.000e+03        1.870e-15        3.480e-15      
                   1.791e-11        1.721e-11         25.0000       
                 1               
 353               6.000e+03        1.870e-15        5.280e-15      
                   1.791e-11        1.721e-11         25.0000       
                 1               
 354               6.000e+03        1.870e-15        8.000e-15      
                   1.791e-11        1.721e-11         25.0000       
                 1               
 355               6.000e+03        2.300e-15        1.000e-15      
                   2.061e-11        1.984e-11         25.0000       
                 1               
 356               6.000e+03        2.300e-15        1.520e-15      
                   2.061e-11        1.984e-11         25.0000       
                 1               
 357               6.000e+03        2.300e-15        2.300e-15      
                   2.061e-11        1.984e-11         25.0000       
                 1               
 358               6.000e+03        2.300e-15        3.480e-15      
                   2.061e-11        1.984e-11         25.0000       
                 1               
 359               6.000e+03        2.300e-15        5.280e-15      
                   2.061e-11        1.984e-11         25.0000       
                 1               
 360               6.000e+03        2.300e-15        8.000e-15      
                   2.061e-11        1.984e-11         25.0000       
                 1               
 361               6.000e+03        2.830e-15        1.000e-15      
                   2.486e-11        2.361e-11         25.0000       
                 1               
 362               6.000e+03        2.830e-15        1.520e-15      
                   2.486e-11        2.361e-11         25.0000       
                 1               
 363               6.000e+03        2.830e-15        2.300e-15      
                   2.486e-11        2.361e-11         25.0000       
                 1               
 364               6.000e+03        2.830e-15        3.480e-15      
                   2.486e-11        2.361e-11         25.0000       
                 1               
 365               6.000e+03        2.830e-15        5.280e-15      
                   2.486e-11        2.361e-11         25.0000       
                 1               
 366               6.000e+03        2.830e-15        8.000e-15      
                   2.486e-11        2.361e-11         25.0000       
                 1               
 367               6.000e+03        3.480e-15        1.000e-15      
                   2.925e-11        2.785e-11         25.0000       
                 1               
 368               6.000e+03        3.480e-15        1.520e-15      
                   2.925e-11        2.785e-11         25.0000       
                 1               
 369               6.000e+03        3.480e-15        2.300e-15      
                   2.925e-11        2.785e-11         25.0000       
                 1               
 370               6.000e+03        3.480e-15        3.480e-15      
                   2.925e-11        2.785e-11         25.0000       
                 1               
 371               6.000e+03        3.480e-15        5.280e-15      
                   2.925e-11        2.785e-11         25.0000       
                 1               
 372               6.000e+03        3.480e-15        8.000e-15      
                   2.925e-11        2.785e-11         25.0000       
                 1               
 373               6.000e+03        4.290e-15        1.000e-15      
                   3.454e-11        3.286e-11         25.0000       
                 1               
 374               6.000e+03        4.290e-15        1.520e-15      
                   3.454e-11        3.286e-11         25.0000       
                 1               
 375               6.000e+03        4.290e-15        2.300e-15      
                   3.454e-11        3.286e-11         25.0000       
                 1               
 376               6.000e+03        4.290e-15        3.480e-15      
                   3.454e-11        3.286e-11         25.0000       
                 1               
 377               6.000e+03        4.290e-15        5.280e-15      
                   3.454e-11        3.286e-11         25.0000       
                 1               
 378               6.000e+03        4.290e-15        8.000e-15      
                   3.454e-11        3.286e-11         25.0000       
                 1               
 379               6.000e+03        5.280e-15        1.000e-15      
                   4.063e-11        3.896e-11         25.0000       
                 1               
 380               6.000e+03        5.280e-15        1.520e-15      
                   4.063e-11        3.896e-11         25.0000       
                 1               
 381               6.000e+03        5.280e-15        2.300e-15      
                   4.063e-11        3.896e-11         25.0000       
                 1               
 382               6.000e+03        5.280e-15        3.480e-15      
                   4.063e-11        3.896e-11         25.0000       
                 1               
 383               6.000e+03        5.280e-15        5.280e-15      
                   4.063e-11        3.896e-11         25.0000       
                 1               
 384               6.000e+03        5.280e-15        8.000e-15      
                   4.063e-11        3.896e-11         25.0000       
                 1               
 385               6.000e+03        6.500e-15        1.000e-15      
                   4.900e-11        4.714e-11         25.0000       
                 1               
 386               6.000e+03        6.500e-15        1.520e-15      
                   4.900e-11        4.714e-11         25.0000       
                 1               
 387               6.000e+03        6.500e-15        2.300e-15      
                   4.900e-11        4.714e-11         25.0000       
                 1               
 388               6.000e+03        6.500e-15        3.480e-15      
                   4.900e-11        4.714e-11         25.0000       
                 1               
 389               6.000e+03        6.500e-15        5.280e-15      
                   4.900e-11        4.714e-11         25.0000       
                 1               
 390               6.000e+03        6.500e-15        8.000e-15      
                   4.900e-11        4.714e-11         25.0000       
                 1               
 391               6.000e+03        8.000e-15        1.000e-15      
                   5.956e-11        5.737e-11         25.0000       
                 1               
 392               6.000e+03        8.000e-15        1.520e-15      
                   5.956e-11        5.737e-11         25.0000       
                 1               
 393               6.000e+03        8.000e-15        2.300e-15      
                   5.956e-11        5.737e-11         25.0000       
                 1               
 394               6.000e+03        8.000e-15        3.480e-15      
                   5.956e-11        5.737e-11         25.0000       
                 1               
 395               6.000e+03        8.000e-15        5.280e-15      
                   5.956e-11        5.737e-11         25.0000       
                 1               
 396               6.000e+03        8.000e-15        8.000e-15      
                   5.956e-11        5.737e-11         25.0000       
                 1               
 397               7.000e+03        1.000e-15        1.000e-15      
                   1.472e-11        1.358e-11         25.0000       
                 1               
 398               7.000e+03        1.000e-15        1.520e-15      
                   1.472e-11        1.358e-11         25.0000       
                 1               
 399               7.000e+03        1.000e-15        2.300e-15      
                   1.472e-11        1.358e-11         25.0000       
                 1               
 400               7.000e+03        1.000e-15        3.480e-15      
                   1.472e-11        1.358e-11         25.0000       
                 1               
 401               7.000e+03        1.000e-15        5.280e-15      
                   1.472e-11        1.358e-11         25.0000       
                 1               
 402               7.000e+03        1.000e-15        8.000e-15      
                   1.472e-11        1.358e-11         25.0000       
                 1               
 403               7.000e+03        1.230e-15        1.000e-15      
                   1.641e-11        1.552e-11         25.0000       
                 1               
 404               7.000e+03        1.230e-15        1.520e-15      
                   1.641e-11        1.552e-11         25.0000       
                 1               
 405               7.000e+03        1.230e-15        2.300e-15      
                   1.641e-11        1.552e-11         25.0000       
                 1               
 406               7.000e+03        1.230e-15        3.480e-15      
                   1.641e-11        1.552e-11         25.0000       
                 1               
 407               7.000e+03        1.230e-15        5.280e-15      
                   1.641e-11        1.552e-11         25.0000       
                 1               
 408               7.000e+03        1.230e-15        8.000e-15      
                   1.641e-11        1.552e-11         25.0000       
                 1               
 409               7.000e+03        1.520e-15        1.000e-15      
                   1.844e-11        1.761e-11         25.0000       
                 1               
 410               7.000e+03        1.520e-15        1.520e-15      
                   1.844e-11        1.761e-11         25.0000       
                 1               
 411               7.000e+03        1.520e-15        2.300e-15      
                   1.844e-11        1.761e-11         25.0000       
                 1               
 412               7.000e+03        1.520e-15        3.480e-15      
                   1.844e-11        1.761e-11         25.0000       
                 1               
 413               7.000e+03        1.520e-15        5.280e-15      
                   1.844e-11        1.761e-11         25.0000       
                 1               
 414               7.000e+03        1.520e-15        8.000e-15      
                   1.844e-11        1.761e-11         25.0000       
                 1               
 415               7.000e+03        1.870e-15        1.000e-15      
                   2.093e-11        2.008e-11         25.0000       
                 1               
 416               7.000e+03        1.870e-15        1.520e-15      
                   2.093e-11        2.008e-11         25.0000       
                 1               
 417               7.000e+03        1.870e-15        2.300e-15      
                   2.093e-11        2.008e-11         25.0000       
                 1               
 418               7.000e+03        1.870e-15        3.480e-15      
                   2.093e-11        2.008e-11         25.0000       
                 1               
 419               7.000e+03        1.870e-15        5.280e-15      
                   2.093e-11        2.008e-11         25.0000       
                 1               
 420               7.000e+03        1.870e-15        8.000e-15      
                   2.093e-11        2.008e-11         25.0000       
                 1               
 421               7.000e+03        2.300e-15        1.000e-15      
                   2.414e-11        2.310e-11         25.0000       
                 1               
 422               7.000e+03        2.300e-15        1.520e-15      
                   2.414e-11        2.310e-11         25.0000       
                 1               
 423               7.000e+03        2.300e-15        2.300e-15      
                   2.414e-11        2.310e-11         25.0000       
                 1               
 424               7.000e+03        2.300e-15        3.480e-15      
                   2.414e-11        2.310e-11         25.0000       
                 1               
 425               7.000e+03        2.300e-15        5.280e-15      
                   2.414e-11        2.310e-11         25.0000       
                 1               
 426               7.000e+03        2.300e-15        8.000e-15      
                   2.414e-11        2.310e-11         25.0000       
                 1               
 427               7.000e+03        2.830e-15        1.000e-15      
                   2.947e-11        2.724e-11         25.0000       
                 1               
 428               7.000e+03        2.830e-15        1.520e-15      
                   2.947e-11        2.724e-11         25.0000       
                 1               
 429               7.000e+03        2.830e-15        2.300e-15      
                   2.947e-11        2.724e-11         25.0000       
                 1               
 430               7.000e+03        2.830e-15        3.480e-15      
                   2.947e-11        2.724e-11         25.0000       
                 1               
 431               7.000e+03        2.830e-15        5.280e-15      
                   2.947e-11        2.724e-11         25.0000       
                 1               
 432               7.000e+03        2.830e-15        8.000e-15      
                   2.947e-11        2.724e-11         25.0000       
                 1               
 433               7.000e+03        3.480e-15        1.000e-15      
                   3.433e-11        3.260e-11         25.0000       
                 1               
 434               7.000e+03        3.480e-15        1.520e-15      
                   3.433e-11        3.260e-11         25.0000       
                 1               
 435               7.000e+03        3.480e-15        2.300e-15      
                   3.433e-11        3.260e-11         25.0000       
                 1               
 436               7.000e+03        3.480e-15        3.480e-15      
                   3.433e-11        3.260e-11         25.0000       
                 1               
 437               7.000e+03        3.480e-15        5.280e-15      
                   3.433e-11        3.260e-11         25.0000       
                 1               
 438               7.000e+03        3.480e-15        8.000e-15      
                   3.433e-11        3.260e-11         25.0000       
                 1               
 439               7.000e+03        4.290e-15        1.000e-15      
                   4.044e-11        3.835e-11         25.0000       
                 1               
 440               7.000e+03        4.290e-15        1.520e-15      
                   4.044e-11        3.835e-11         25.0000       
                 1               
 441               7.000e+03        4.290e-15        2.300e-15      
                   4.044e-11        3.835e-11         25.0000       
                 1               
 442               7.000e+03        4.290e-15        3.480e-15      
                   4.044e-11        3.835e-11         25.0000       
                 1               
 443               7.000e+03        4.290e-15        5.280e-15      
                   4.044e-11        3.835e-11         25.0000       
                 1               
 444               7.000e+03        4.290e-15        8.000e-15      
                   4.044e-11        3.835e-11         25.0000       
                 1               
 445               7.000e+03        5.280e-15        1.000e-15      
                   4.750e-11        4.541e-11         25.0000       
                 1               
 446               7.000e+03        5.280e-15        1.520e-15      
                   4.750e-11        4.541e-11         25.0000       
                 1               
 447               7.000e+03        5.280e-15        2.300e-15      
                   4.750e-11        4.541e-11         25.0000       
                 1               
 448               7.000e+03        5.280e-15        3.480e-15      
                   4.750e-11        4.541e-11         25.0000       
                 1               
 449               7.000e+03        5.280e-15        5.280e-15      
                   4.750e-11        4.541e-11         25.0000       
                 1               
 450               7.000e+03        5.280e-15        8.000e-15      
                   4.750e-11        4.541e-11         25.0000       
                 1               
 451               7.000e+03        6.500e-15        1.000e-15      
                   5.731e-11        5.436e-11         25.0000       
                 1               
 452               7.000e+03        6.500e-15        1.520e-15      
                   5.731e-11        5.436e-11         25.0000       
                 1               
 453               7.000e+03        6.500e-15        2.300e-15      
                   5.731e-11        5.436e-11         25.0000       
                 1               
 454               7.000e+03        6.500e-15        3.480e-15      
                   5.731e-11        5.436e-11         25.0000       
                 1               
 455               7.000e+03        6.500e-15        5.280e-15      
                   5.731e-11        5.436e-11         25.0000       
                 1               
 456               7.000e+03        6.500e-15        8.000e-15      
                   5.731e-11        5.436e-11         25.0000       
                 1               
 457               7.000e+03        8.000e-15        1.000e-15      
                   7.069e-11        6.689e-11         25.0000       
                 1               
 458               7.000e+03        8.000e-15        1.520e-15      
                   7.069e-11        6.689e-11         25.0000       
                 1               
 459               7.000e+03        8.000e-15        2.300e-15      
                   7.069e-11        6.689e-11         25.0000       
                 1               
 460               7.000e+03        8.000e-15        3.480e-15      
                   7.069e-11        6.689e-11         25.0000       
                 1               
 461               7.000e+03        8.000e-15        5.280e-15      
                   7.069e-11        6.689e-11         25.0000       
                 1               
 462               7.000e+03        8.000e-15        8.000e-15      
                   7.069e-11        6.689e-11         25.0000       
                 1               
 463               8.000e+03        1.000e-15        1.000e-15      
                   1.671e-11        1.534e-11         25.0000       
                 1               
 464               8.000e+03        1.000e-15        1.520e-15      
[...]
                 1               
 545               9.000e+03        1.520e-15        5.280e-15      
                   2.401e-11        2.231e-11         25.0000       
                 1               
 546               9.000e+03        1.520e-15        8.000e-15      
                   2.401e-11        2.231e-11         25.0000       
                 1               
 547               9.000e+03        1.870e-15        1.000e-15      
                   2.723e-11        2.582e-11         25.0000       
                 1               
 548               9.000e+03        1.870e-15        1.520e-15      
                   2.723e-11        2.582e-11         25.0000       
                 1               
 549               9.000e+03        1.870e-15        2.300e-15      
                   2.723e-11        2.582e-11         25.0000       
                 1               
 550               9.000e+03        1.870e-15        3.480e-15      
                   2.723e-11        2.582e-11         25.0000       
                 1               
 551               9.000e+03        1.870e-15        5.280e-15      
                   2.723e-11        2.582e-11         25.0000       
                 1               
 552               9.000e+03        1.870e-15        8.000e-15      
                   2.723e-11        2.582e-11         25.0000       
                 1               
 553               9.000e+03        2.300e-15        1.000e-15      
                   3.208e-11        2.968e-11         25.0000       
                 1               
 554               9.000e+03        2.300e-15        1.520e-15      
                   3.208e-11        2.968e-11         25.0000       
                 1               
 555               9.000e+03        2.300e-15        2.300e-15      
                   3.208e-11        2.968e-11         25.0000       
                 1               
 556               9.000e+03        2.300e-15        3.480e-15      
                   3.208e-11        2.968e-11         25.0000       
                 1               
 557               9.000e+03        2.300e-15        5.280e-15      
                   3.208e-11        2.968e-11         25.0000       
                 1               
 558               9.000e+03        2.300e-15        8.000e-15      
                   3.208e-11        2.968e-11         25.0000       
                 1               
 559               9.000e+03        2.830e-15        1.000e-15      
                   3.794e-11        3.462e-11         25.0000       
                 1               
 560               9.000e+03        2.830e-15        1.520e-15      
                   3.794e-11        3.462e-11         25.0000       
                 1               
 561               9.000e+03        2.830e-15        2.300e-15      
                   3.794e-11        3.462e-11         25.0000       
                 1               
 562               9.000e+03        2.830e-15        3.480e-15      
                   3.794e-11        3.462e-11         25.0000       
                 1               
 563               9.000e+03        2.830e-15        5.280e-15      
                   3.794e-11        3.462e-11         25.0000       
                 1               
 564               9.000e+03        2.830e-15        8.000e-15      
                   3.794e-11        3.462e-11         25.0000       
                 1               
 565               9.000e+03        3.480e-15        1.000e-15      
                   4.497e-11        4.156e-11         25.0000       
                 1               
 566               9.000e+03        3.480e-15        1.520e-15      
                   4.497e-11        4.156e-11         25.0000       
                 1               
 567               9.000e+03        3.480e-15        2.300e-15      
                   4.497e-11        4.156e-11         25.0000       
                 1               
 568               9.000e+03        3.480e-15        3.480e-15      
                   4.497e-11        4.156e-11         25.0000       
                 1               
 569               9.000e+03        3.480e-15        5.280e-15      
                   4.497e-11        4.156e-11         25.0000       
                 1               
 570               9.000e+03        3.480e-15        8.000e-15      
                   4.497e-11        4.156e-11         25.0000       
                 1               
 571               9.000e+03        4.290e-15        1.000e-15      
                   5.290e-11        4.957e-11         25.0000       
                 1               
 572               9.000e+03        4.290e-15        1.520e-15      
                   5.290e-11        4.957e-11         25.0000       
                 1               
 573               9.000e+03        4.290e-15        2.300e-15      
                   5.290e-11        4.957e-11         25.0000       
                 1               
 574               9.000e+03        4.290e-15        3.480e-15      
                   5.290e-11        4.957e-11         25.0000       
                 1               
 575               9.000e+03        4.290e-15        5.280e-15      
                   5.290e-11        4.957e-11         25.0000       
                 1               
 576               9.000e+03        4.290e-15        8.000e-15      
                   5.290e-11        4.957e-11         25.0000       
                 1               
 577               9.000e+03        5.280e-15        1.000e-15      
                   6.168e-11        5.844e-11         25.0000       
                 1               
 578               9.000e+03        5.280e-15        1.520e-15      
                   6.168e-11        5.844e-11         25.0000       
                 1               
 579               9.000e+03        5.280e-15        2.300e-15      
                   6.168e-11        5.844e-11         25.0000       
                 1               
 580               9.000e+03        5.280e-15        3.480e-15      
                   6.168e-11        5.844e-11         25.0000       
                 1               
 581               9.000e+03        5.280e-15        5.280e-15      
                   6.168e-11        5.844e-11         25.0000       
                 1               
 582               9.000e+03        5.280e-15        8.000e-15      
                   6.168e-11        5.844e-11         25.0000       
                 1               
 583               9.000e+03        6.500e-15        1.000e-15      
                   7.355e-11        6.925e-11         25.0000       
                 1               
 584               9.000e+03        6.500e-15        1.520e-15      
                   7.355e-11        6.925e-11         25.0000       
                 1               
 585               9.000e+03        6.500e-15        2.300e-15      
                   7.355e-11        6.925e-11         25.0000       
                 1               
 586               9.000e+03        6.500e-15        3.480e-15      
                   7.355e-11        6.925e-11         25.0000       
                 1               
 587               9.000e+03        6.500e-15        5.280e-15      
                   7.355e-11        6.925e-11         25.0000       
                 1               
 588               9.000e+03        6.500e-15        8.000e-15      
                   7.355e-11        6.925e-11         25.0000       
                 1               
 589               9.000e+03        8.000e-15        1.000e-15      
                   8.988e-11        8.460e-11         25.0000       
                 1               
 590               9.000e+03        8.000e-15        1.520e-15      
                   8.988e-11        8.460e-11         25.0000       
                 1               
 591               9.000e+03        8.000e-15        2.300e-15      
                   8.988e-11        8.460e-11         25.0000       
                 1               
 592               9.000e+03        8.000e-15        3.480e-15      
                   8.988e-11        8.460e-11         25.0000       
                 1               
 593               9.000e+03        8.000e-15        5.280e-15      
                   8.988e-11        8.460e-11         25.0000       
                 1               
 594               9.000e+03        8.000e-15        8.000e-15      
                   8.988e-11        8.460e-11         25.0000       
                 1               
 595               1.000e+04        1.000e-15        1.000e-15      
                   2.052e-11        1.880e-11         25.0000       
                 1               
 596               1.000e+04        1.000e-15        1.520e-15      
                   2.052e-11        1.880e-11         25.0000       
                 1               
 597               1.000e+04        1.000e-15        2.300e-15      
                   2.052e-11        1.880e-11         25.0000       
                 1               
 598               1.000e+04        1.000e-15        3.480e-15      
                   2.052e-11        1.880e-11         25.0000       
                 1               
 599               1.000e+04        1.000e-15        5.280e-15      
                   2.052e-11        1.880e-11         25.0000       
                 1               
 600               1.000e+04        1.000e-15        8.000e-15      
                   2.052e-11        1.880e-11         25.0000       
                 1               
 601               1.000e+04        1.230e-15        1.000e-15      
                   2.317e-11        2.127e-11         25.0000       
                 1               
 602               1.000e+04        1.230e-15        1.520e-15      
                   2.317e-11        2.127e-11         25.0000       
                 1               
 603               1.000e+04        1.230e-15        2.300e-15      
                   2.317e-11        2.127e-11         25.0000       
                 1               
 604               1.000e+04        1.230e-15        3.480e-15      
                   2.317e-11        2.127e-11         25.0000       
                 1               
 605               1.000e+04        1.230e-15        5.280e-15      
                   2.317e-11        2.127e-11         25.0000       
                 1               
 606               1.000e+04        1.230e-15        8.000e-15      
                   2.317e-11        2.127e-11         25.0000       
                 1               
 607               1.000e+04        1.520e-15        1.000e-15      
                   2.659e-11        2.440e-11         25.0000       
                 1               
 608               1.000e+04        1.520e-15        1.520e-15      
                   2.659e-11        2.440e-11         25.0000       
                 1               
 609               1.000e+04        1.520e-15        2.300e-15      
                   2.659e-11        2.440e-11         25.0000       
                 1               
 610               1.000e+04        1.520e-15        3.480e-15      
                   2.659e-11        2.440e-11         25.0000       
                 1               
 611               1.000e+04        1.520e-15        5.280e-15      
                   2.659e-11        2.440e-11         25.0000       
                 1               
 612               1.000e+04        1.520e-15        8.000e-15      
                   2.659e-11        2.440e-11         25.0000       
                 1               
 613               1.000e+04        1.870e-15        1.000e-15      
                   3.043e-11        2.820e-11         25.0000       
                 1               
 614               1.000e+04        1.870e-15        1.520e-15      
                   3.043e-11        2.820e-11         25.0000       
                 1               
 615               1.000e+04        1.870e-15        2.300e-15      
                   3.043e-11        2.820e-11         25.0000       
                 1               
 616               1.000e+04        1.870e-15        3.480e-15      
                   3.043e-11        2.820e-11         25.0000       
                 1               
 617               1.000e+04        1.870e-15        5.280e-15      
                   3.043e-11        2.820e-11         25.0000       
                 1               
 618               1.000e+04        1.870e-15        8.000e-15      
                   3.043e-11        2.820e-11         25.0000       
                 1               
 619               1.000e+04        2.300e-15        1.000e-15      
                   3.558e-11        3.290e-11         25.0000       
                 1               
 620               1.000e+04        2.300e-15        1.520e-15      
                   3.558e-11        3.290e-11         25.0000       
                 1               
 621               1.000e+04        2.300e-15        2.300e-15      
                   3.558e-11        3.290e-11         25.0000       
                 1               
 622               1.000e+04        2.300e-15        3.480e-15      
                   3.558e-11        3.290e-11         25.0000       
                 1               
 623               1.000e+04        2.300e-15        5.280e-15      
                   3.558e-11        3.290e-11         25.0000       
                 1               
 624               1.000e+04        2.300e-15        8.000e-15      
                   3.558e-11        3.290e-11         25.0000       
                 1               
 625               1.000e+04        2.830e-15        1.000e-15      
                   4.188e-11        3.825e-11         25.0000       
                 1               
 626               1.000e+04        2.830e-15        1.520e-15      
                   4.188e-11        3.825e-11         25.0000       
                 1               
 627               1.000e+04        2.830e-15        2.300e-15      
                   4.188e-11        3.825e-11         25.0000       
                 1               
 628               1.000e+04        2.830e-15        3.480e-15      
                   4.188e-11        3.825e-11         25.0000       
                 1               
 629               1.000e+04        2.830e-15        5.280e-15      
                   4.188e-11        3.825e-11         25.0000       
                 1               
 630               1.000e+04        2.830e-15        8.000e-15      
                   4.188e-11        3.825e-11         25.0000       
                 1               
 631               1.000e+04        3.480e-15        1.000e-15      
                   4.964e-11        4.537e-11         25.0000       
                 1               
 632               1.000e+04        3.480e-15        1.520e-15      
                   4.964e-11        4.537e-11         25.0000       
                 1               
 633               1.000e+04        3.480e-15        2.300e-15      
                   4.964e-11        4.537e-11         25.0000       
                 1               
 634               1.000e+04        3.480e-15        3.480e-15      
                   4.964e-11        4.537e-11         25.0000       
                 1               
 635               1.000e+04        3.480e-15        5.280e-15      
                   4.964e-11        4.537e-11         25.0000       
                 1               
 636               1.000e+04        3.480e-15        8.000e-15      
                   4.964e-11        4.537e-11         25.0000       
                 1               
 637               1.000e+04        4.290e-15        1.000e-15      
                   5.926e-11        5.432e-11         25.0000       
                 1               
 638               1.000e+04        4.290e-15        1.520e-15      
                   5.926e-11        5.432e-11         25.0000       
                 1               
 639               1.000e+04        4.290e-15        2.300e-15      
                   5.926e-11        5.432e-11         25.0000       
                 1               
 640               1.000e+04        4.290e-15        3.480e-15      
                   5.926e-11        5.432e-11         25.0000       
                 1               
 641               1.000e+04        4.290e-15        5.280e-15      
                   5.926e-11        5.432e-11         25.0000       
                 1               
 642               1.000e+04        4.290e-15        8.000e-15      
                   5.926e-11        5.432e-11         25.0000       
                 1               
 643               1.000e+04        5.280e-15        1.000e-15      
                   6.894e-11        6.487e-11         25.0000       
                 1               
 644               1.000e+04        5.280e-15        1.520e-15      
                   6.894e-11        6.487e-11         25.0000       
                 1               
 645               1.000e+04        5.280e-15        2.300e-15      
                   6.894e-11        6.487e-11         25.0000       
                 1               
 646               1.000e+04        5.280e-15        3.480e-15      
                   6.894e-11        6.487e-11         25.0000       
                 1               
 647               1.000e+04        5.280e-15        5.280e-15      
                   6.894e-11        6.487e-11         25.0000       
                 1               
 648               1.000e+04        5.280e-15        8.000e-15      
                   6.894e-11        6.487e-11         25.0000       
                 1               
 649               1.000e+04        6.500e-15        1.000e-15      
                   8.212e-11        7.661e-11         25.0000       
                 1               
 650               1.000e+04        6.500e-15        1.520e-15      
                   8.212e-11        7.661e-11         25.0000       
                 1               
 651               1.000e+04        6.500e-15        2.300e-15      
                   8.212e-11        7.661e-11         25.0000       
                 1               
 652               1.000e+04        6.500e-15        3.480e-15      
                   8.212e-11        7.661e-11         25.0000       
                 1               
 653               1.000e+04        6.500e-15        5.280e-15      
                   8.212e-11        7.661e-11         25.0000       
                 1               
 654               1.000e+04        6.500e-15        8.000e-15      
                   8.212e-11        7.661e-11         25.0000       
                 1               
 655               1.000e+04        8.000e-15        1.000e-15      
                   9.904e-11        9.318e-11         25.0000       
                 1               
 656               1.000e+04        8.000e-15        1.520e-15      
                   9.904e-11        9.318e-11         25.0000       
                 1               
 657               1.000e+04        8.000e-15        2.300e-15      
                   9.904e-11        9.318e-11         25.0000       
                 1               
 658               1.000e+04        8.000e-15        3.480e-15      
                   9.904e-11        9.318e-11         25.0000       
                 1               
 659               1.000e+04        8.000e-15        5.280e-15      
                   9.904e-11        9.318e-11         25.0000       
                 1               
 660               1.000e+04        8.000e-15        8.000e-15      
                   9.904e-11        9.318e-11         25.0000       
                 1               
