****** HSPICE -- L-2016.06 linux64 (May 22 2016) ******
 Input File: pi.sp
 lic:
 lic: FLEXlm: v11.2.1
 lic: USER:   tongjia              HOSTNAME: viterbi-scf2
 lic: HOSTID: "e4434b6e9271"       PID:      114385
 lic: Using FLEXlm license file:
 lic: 1720@lic-synopsys.usc.edu
 lic: Checkout 1 hspice
 lic: License/Maintenance for hspice will expire on 30-jun-2025/2023.12
 lic: 1(in_use)/50(total) FLOATING license(s) on SERVER 1720@lic-synopsys.usc.edu
 lic:
 init: begin read circuit files,  cpu clock=  7.00E-02
       option search = /usr/local/synopsys/HSPICE/L-2016.06/hspice/part
                         s/ad
       option runlvl
       option post
       option brief
       option nomod
       option probe
       option measout
 init: end read circuit files,  cpu clock=  7.00E-02 peak memory=       183 mb
 init: begin check errors,  cpu clock=  7.00E-02
 init: end check errors,  cpu clock=  8.00E-02 peak memory=       183 mb
 init: begin setup matrix, pivot=     0 cpu clock=  8.00E-02
       establish matrix -- done,  cpu clock=  8.00E-02 peak memory=       183 mb
       re-order matrix -- done,  cpu clock=  8.00E-02 peak memory=       183 mb
 init: end setup matrix,  cpu clock=  9.00E-02 peak memory=       183 mb
 sweep: data            data1            begin, #sweeps = 660
 data: data=mydata          r               =    1.00E+03
 dcop: begin dcop,  cpu clock=  9.00E-02
 dcop: end dcop,  cpu clock=  9.00E-02 peak memory=       183 mb  tot_iter=       4
 output: pi.mt0
 sweep: tran tran1    begin, stop_t=  1.00E-08 #sweeps=1001 cpu clock=  1.00E-01
 tran: time= 1.1100E-09 tot_iter=      70 conv_iter=      29 cpu clock= 1.00E-01
 tran: time= 2.1000E-09 tot_iter=     126 conv_iter=      52 cpu clock= 1.00E-01
 tran: time= 3.0555E-09 tot_iter=     182 conv_iter=      74 cpu clock= 1.00E-01
 tran: time= 4.0476E-09 tot_iter=     241 conv_iter=      98 cpu clock= 1.00E-01
 tran: time= 5.1100E-09 tot_iter=     300 conv_iter=     122 cpu clock= 1.00E-01
 tran: time= 6.1000E-09 tot_iter=     356 conv_iter=     145 cpu clock= 1.10E-01
 tran: time= 7.0563E-09 tot_iter=     412 conv_iter=     167 cpu clock= 1.10E-01
 tran: time= 8.0473E-09 tot_iter=     471 conv_iter=     191 cpu clock= 1.10E-01
 tran: time= 9.1100E-09 tot_iter=     530 conv_iter=     215 cpu clock= 1.10E-01
 tran: time= 1.0000E-08 tot_iter=     586 conv_iter=     238 cpu clock= 1.10E-01
 sweep: tran tran1    end,  cpu clock=  1.10E-01 peak memory=       183 mb
 data: data=mydata          r               =    1.00E+03
 dcop: begin dcop,  cpu clock=  1.10E-01
 dcop: end dcop,  cpu clock=  1.10E-01 peak memory=       183 mb  tot_iter=       8
 output: pi.mt0
 sweep: tran tran2    begin, stop_t=  1.00E-08 #sweeps=1001 cpu clock=  1.10E-01
 tran: time= 1.1100E-09 tot_iter=      70 conv_iter=      29 cpu clock= 1.20E-01
 tran: time= 2.1000E-09 tot_iter=     126 conv_iter=      52 cpu clock= 1.20E-01
 tran: time= 3.0555E-09 tot_iter=     182 conv_iter=      74 cpu clock= 1.20E-01
 tran: time= 4.0476E-09 tot_iter=     241 conv_iter=      98 cpu clock= 1.20E-01
 tran: time= 5.1100E-09 tot_iter=     300 conv_iter=     122 cpu clock= 1.20E-01
 tran: time= 6.1000E-09 tot_iter=     356 conv_iter=     145 cpu clock= 1.20E-01
 tran: time= 7.0563E-09 tot_iter=     412 conv_iter=     167 cpu clock= 1.20E-01
 tran: time= 8.0473E-09 tot_iter=     471 conv_iter=     191 cpu clock= 1.20E-01
 tran: time= 9.1100E-09 tot_iter=     530 conv_iter=     215 cpu clock= 1.20E-01
 tran: time= 1.0000E-08 tot_iter=     586 conv_iter=     238 cpu clock= 1.30E-01
 sweep: tran tran2    end,  cpu clock=  1.30E-01 peak memory=       183 mb
 data: data=mydata          r               =    1.00E+03
 dcop: begin dcop,  cpu clock=  1.30E-01
 dcop: end dcop,  cpu clock=  1.30E-01 peak memory=       183 mb  tot_iter=      12
 output: pi.mt0
 sweep: tran tran3    begin, stop_t=  1.00E-08 #sweeps=1001 cpu clock=  1.30E-01
 tran: time= 1.1100E-09 tot_iter=      70 conv_iter=      29 cpu clock= 1.30E-01
 tran: time= 2.1000E-09 tot_iter=     126 conv_iter=      52 cpu clock= 1.30E-01
 tran: time= 3.0555E-09 tot_iter=     182 conv_iter=      74 cpu clock= 1.30E-01
 tran: time= 4.0476E-09 tot_iter=     241 conv_iter=      98 cpu clock= 1.30E-01
 tran: time= 5.1100E-09 tot_iter=     300 conv_iter=     122 cpu clock= 1.30E-01
 tran: time= 6.1000E-09 tot_iter=     356 conv_iter=     145 cpu clock= 1.40E-01
 tran: time= 7.0563E-09 tot_iter=     412 conv_iter=     167 cpu clock= 1.40E-01
 tran: time= 8.0473E-09 tot_iter=     471 conv_iter=     191 cpu clock= 1.40E-01
 tran: time= 9.1100E-09 tot_iter=     530 conv_iter=     215 cpu clock= 1.40E-01
 tran: time= 1.0000E-08 tot_iter=     586 conv_iter=     238 cpu clock= 1.40E-01
 sweep: tran tran3    end,  cpu clock=  1.40E-01 peak memory=       183 mb
 data: data=mydata          r               =    1.00E+03
 dcop: begin dcop,  cpu clock=  1.40E-01
 dcop: end dcop,  cpu clock=  1.40E-01 peak memory=       183 mb  tot_iter=      16
 output: pi.mt0
 sweep: tran tran4    begin, stop_t=  1.00E-08 #sweeps=1001 cpu clock=  1.40E-01
 tran: time= 1.1100E-09 tot_iter=      70 conv_iter=      29 cpu clock= 1.50E-01
 tran: time= 2.1000E-09 tot_iter=     126 conv_iter=      52 cpu clock= 1.50E-01
 tran: time= 3.0555E-09 tot_iter=     182 conv_iter=      74 cpu clock= 1.50E-01
 tran: time= 4.0476E-09 tot_iter=     241 conv_iter=      98 cpu clock= 1.50E-01
 tran: time= 5.1100E-09 tot_iter=     300 conv_iter=     122 cpu clock= 1.50E-01
 tran: time= 6.1000E-09 tot_iter=     356 conv_iter=     145 cpu clock= 1.50E-01
 tran: time= 7.0563E-09 tot_iter=     412 conv_iter=     167 cpu clock= 1.50E-01
 tran: time= 8.0473E-09 tot_iter=     471 conv_iter=     191 cpu clock= 1.50E-01
 tran: time= 9.1100E-09 tot_iter=     530 conv_iter=     215 cpu clock= 1.50E-01
 tran: time= 1.0000E-08 tot_iter=     586 conv_iter=     238 cpu clock= 1.50E-01
 sweep: tran tran4    end,  cpu clock=  1.50E-01 peak memory=       183 mb
 data: data=mydata          r               =    1.00E+03
 dcop: begin dcop,  cpu clock=  1.60E-01
 dcop: end dcop,  cpu clock=  1.60E-01 peak memory=       183 mb  tot_iter=      20
 output: pi.mt0
 sweep: tran tran5    begin, stop_t=  1.00E-08 #sweeps=1001 cpu clock=  1.60E-01
 tran: time= 1.1100E-09 tot_iter=      70 conv_iter=      29 cpu clock= 1.60E-01
 tran: time= 2.1000E-09 tot_iter=     126 conv_iter=      52 cpu clock= 1.60E-01
 tran: time= 3.0555E-09 tot_iter=     182 conv_iter=      74 cpu clock= 1.60E-01
 tran: time= 4.0476E-09 tot_iter=     241 conv_iter=      98 cpu clock= 1.60E-01
 tran: time= 5.1100E-09 tot_iter=     300 conv_iter=     122 cpu clock= 1.60E-01
 tran: time= 6.1000E-09 tot_iter=     356 conv_iter=     145 cpu clock= 1.60E-01
 tran: time= 7.0563E-09 tot_iter=     412 conv_iter=     167 cpu clock= 1.60E-01
 tran: time= 8.0473E-09 tot_iter=     471 conv_iter=     191 cpu clock= 1.60E-01
 tran: time= 9.1100E-09 tot_iter=     530 conv_iter=     215 cpu clock= 1.70E-01
 tran: time= 1.0000E-08 tot_iter=     586 conv_iter=     238 cpu clock= 1.70E-01
 sweep: tran tran5    end,  cpu clock=  1.70E-01 peak memory=       183 mb
 data: data=mydata          r               =    1.00E+03
 dcop: begin dcop,  cpu clock=  1.70E-01
 dcop: end dcop,  cpu clock=  1.70E-01 peak memory=       183 mb  tot_iter=      24
 output: pi.mt0
 sweep: tran tran6    begin, stop_t=  1.00E-08 #sweeps=1001 cpu clock=  1.70E-01
 tran: time= 1.1100E-09 tot_iter=      70 conv_iter=      29 cpu clock= 1.70E-01
 tran: time= 2.1000E-09 tot_iter=     126 conv_iter=      52 cpu clock= 1.80E-01
 tran: time= 3.0555E-09 tot_iter=     182 conv_iter=      74 cpu clock= 1.80E-01
 tran: time= 4.0476E-09 tot_iter=     241 conv_iter=      98 cpu clock= 1.80E-01
 tran: time= 5.1100E-09 tot_iter=     300 conv_iter=     122 cpu clock= 1.80E-01
 tran: time= 6.1000E-09 tot_iter=     356 conv_iter=     145 cpu clock= 1.80E-01
 tran: time= 7.0563E-09 tot_iter=     412 conv_iter=     167 cpu clock= 1.80E-01
 tran: time= 8.0473E-09 tot_iter=     471 conv_iter=     191 cpu clock= 1.80E-01
 tran: time= 9.1100E-09 tot_iter=     530 conv_iter=     215 cpu clock= 1.80E-01
 tran: time= 1.0000E-08 tot_iter=     586 conv_iter=     238 cpu clock= 1.90E-01
 sweep: tran tran6    end,  cpu clock=  1.90E-01 peak memory=       183 mb
 data: data=mydata          r               =    1.00E+03
 dcop: begin dcop,  cpu clock=  1.90E-01
 dcop: end dcop,  cpu clock=  1.90E-01 peak memory=       183 mb  tot_iter=      28
 output: pi.mt0
 sweep: tran tran7    begin, stop_t=  1.00E-08 #sweeps=1001 cpu clock=  1.90E-01
 tran: time= 1.1100E-09 tot_iter=      68 conv_iter=      28 cpu clock= 1.90E-01
 tran: time= 2.0714E-09 tot_iter=     124 conv_iter=      52 cpu clock= 1.90E-01
 tran: time= 3.1100E-09 tot_iter=     188 conv_iter=      78 cpu clock= 1.90E-01
 tran: time= 4.1000E-09 tot_iter=     244 conv_iter=     101 cpu clock= 1.90E-01
 tran: time= 5.1100E-09 tot_iter=     300 conv_iter=     123 cpu clock= 1.90E-01
 tran: time= 6.1000E-09 tot_iter=     356 conv_iter=     147 cpu clock= 1.90E-01
 tran: time= 7.1100E-09 tot_iter=     414 conv_iter=     170 cpu clock= 1.90E-01
 tran: time= 8.1000E-09 tot_iter=     470 conv_iter=     193 cpu clock= 2.00E-01
 tran: time= 9.1100E-09 tot_iter=     526 conv_iter=     215 cpu clock= 2.00E-01
 tran: time= 1.0000E-08 tot_iter=     582 conv_iter=     239 cpu clock= 2.00E-01
 sweep: tran tran7    end,  cpu clock=  2.00E-01 peak memory=       183 mb
 data: data=mydata          r               =    1.00E+03
 dcop: begin dcop,  cpu clock=  2.00E-01
 dcop: end dcop,  cpu clock=  2.00E-01 peak memory=       183 mb  tot_iter=      32
 output: pi.mt0
 sweep: tran tran8    begin, stop_t=  1.00E-08 #sweeps=1001 cpu clock=  2.00E-01
 tran: time= 1.1100E-09 tot_iter=      68 conv_iter=      28 cpu clock= 2.00E-01
 tran: time= 2.0714E-09 tot_iter=     124 conv_iter=      52 cpu clock= 2.00E-01
 tran: time= 3.1100E-09 tot_iter=     188 conv_iter=      78 cpu clock= 2.00E-01
 tran: time= 4.1000E-09 tot_iter=     244 conv_iter=     101 cpu clock= 2.00E-01
 tran: time= 5.1100E-09 tot_iter=     300 conv_iter=     123 cpu clock= 2.00E-01
 tran: time= 6.1000E-09 tot_iter=     356 conv_iter=     147 cpu clock= 2.10E-01
 tran: time= 7.1100E-09 tot_iter=     414 conv_iter=     170 cpu clock= 2.10E-01
 tran: time= 8.1000E-09 tot_iter=     470 conv_iter=     193 cpu clock= 2.10E-01
 tran: time= 9.1100E-09 tot_iter=     526 conv_iter=     215 cpu clock= 2.10E-01
 tran: time= 1.0000E-08 tot_iter=     582 conv_iter=     239 cpu clock= 2.10E-01
 sweep: tran tran8    end,  cpu clock=  2.10E-01 peak memory=       183 mb
 data: data=mydata          r               =    1.00E+03
 dcop: begin dcop,  cpu clock=  2.10E-01
 dcop: end dcop,  cpu clock=  2.10E-01 peak memory=       183 mb  tot_iter=      36
 output: pi.mt0
 sweep: tran tran9    begin, stop_t=  1.00E-08 #sweeps=1001 cpu clock=  2.10E-01
 tran: time= 1.1100E-09 tot_iter=      68 conv_iter=      28 cpu clock= 2.20E-01
 tran: time= 2.0714E-09 tot_iter=     124 conv_iter=      52 cpu clock= 2.20E-01
 tran: time= 3.1100E-09 tot_iter=     188 conv_iter=      78 cpu clock= 2.20E-01
 tran: time= 4.1000E-09 tot_iter=     244 conv_iter=     101 cpu clock= 2.20E-01
 tran: time= 5.1100E-09 tot_iter=     300 conv_iter=     123 cpu clock= 2.20E-01
 tran: time= 6.1000E-09 tot_iter=     356 conv_iter=     147 cpu clock= 2.20E-01
 tran: time= 7.1100E-09 tot_iter=     414 conv_iter=     170 cpu clock= 2.20E-01
 tran: time= 8.1000E-09 tot_iter=     470 conv_iter=     193 cpu clock= 2.20E-01
 tran: time= 9.1100E-09 tot_iter=     526 conv_iter=     215 cpu clock= 2.20E-01
 tran: time= 1.0000E-08 tot_iter=     582 conv_iter=     239 cpu clock= 2.30E-01
 sweep: tran tran9    end,  cpu clock=  2.30E-01 peak memory=       183 mb
 data: data=mydata          r               =    1.00E+03
 dcop: begin dcop,  cpu clock=  2.30E-01
 dcop: end dcop,  cpu clock=  2.30E-01 peak memory=       183 mb  tot_iter=      40
 output: pi.mt0
 sweep: tran tran10   begin, stop_t=  1.00E-08 #sweeps=1001 cpu clock=  2.30E-01
 tran: time= 1.1100E-09 tot_iter=      68 conv_iter=      28 cpu clock= 2.30E-01
 tran: time= 2.0714E-09 tot_iter=     124 conv_iter=      52 cpu clock= 2.30E-01
 tran: time= 3.1100E-09 tot_iter=     188 conv_iter=      78 cpu clock= 2.30E-01
 tran: time= 4.1000E-09 tot_iter=     244 conv_iter=     101 cpu clock= 2.30E-01
 tran: time= 5.1100E-09 tot_iter=     300 conv_iter=     123 cpu clock= 2.30E-01
 tran: time= 6.1000E-09 tot_iter=     356 conv_iter=     147 cpu clock= 2.30E-01
 tran: time= 7.1100E-09 tot_iter=     414 conv_iter=     170 cpu clock= 2.40E-01
 tran: time= 8.1000E-09 tot_iter=     470 conv_iter=     193 cpu clock= 2.40E-01
 tran: time= 9.1100E-09 tot_iter=     526 conv_iter=     215 cpu clock= 2.40E-01
 tran: time= 1.0000E-08 tot_iter=     582 conv_iter=     239 cpu clock= 2.40E-01
 sweep: tran tran10   end,  cpu clock=  2.40E-01 peak memory=       183 mb
 data: data=mydata          r               =    1.00E+03
 dcop: begin dcop,  cpu clock=  2.40E-01
 dcop: end dcop,  cpu clock=  2.40E-01 peak memory=       183 mb  tot_iter=      44
 output: pi.mt0
 sweep: tran tran11   begin, stop_t=  1.00E-08 #sweeps=1001 cpu clock=  2.40E-01
 tran: time= 1.1100E-09 tot_iter=      68 conv_iter=      28 cpu clock= 2.40E-01
 tran: time= 2.0714E-09 tot_iter=     124 conv_iter=      52 cpu clock= 2.40E-01
 tran: time= 3.1100E-09 tot_iter=     188 conv_iter=      78 cpu clock= 2.50E-01
 tran: time= 4.1000E-09 tot_iter=     244 conv_iter=     101 cpu clock= 2.50E-01
 tran: time= 5.1100E-09 tot_iter=     300 conv_iter=     123 cpu clock= 2.50E-01
 tran: time= 6.1000E-09 tot_iter=     356 conv_iter=     147 cpu clock= 2.50E-01
 tran: time= 7.1100E-09 tot_iter=     414 conv_iter=     170 cpu clock= 2.50E-01
 tran: time= 8.1000E-09 tot_iter=     470 conv_iter=     193 cpu clock= 2.50E-01
 tran: time= 9.1100E-09 tot_iter=     526 conv_iter=     215 cpu clock= 2.50E-01
 tran: time= 1.0000E-08 tot_iter=     582 conv_iter=     239 cpu clock= 2.50E-01
 sweep: tran tran11   end,  cpu clock=  2.50E-01 peak memory=       183 mb
 data: data=mydata          r               =    1.00E+03
 dcop: begin dcop,  cpu clock=  2.60E-01
 dcop: end dcop,  cpu clock=  2.60E-01 peak memory=       183 mb  tot_iter=      48
 output: pi.mt0
 sweep: tran tran12   begin, stop_t=  1.00E-08 #sweeps=1001 cpu clock=  2.60E-01
 tran: time= 1.1100E-09 tot_iter=      68 conv_iter=      28 cpu clock= 2.60E-01
 tran: time= 2.0714E-09 tot_iter=     124 conv_iter=      52 cpu clock= 2.60E-01
 tran: time= 3.1100E-09 tot_iter=     188 conv_iter=      78 cpu clock= 2.60E-01
 tran: time= 4.1000E-09 tot_iter=     244 conv_iter=     101 cpu clock= 2.60E-01
 tran: time= 5.1100E-09 tot_iter=     300 conv_iter=     123 cpu clock= 2.60E-01
 tran: time= 6.1000E-09 tot_iter=     356 conv_iter=     147 cpu clock= 2.60E-01
 tran: time= 7.1100E-09 tot_iter=     414 conv_iter=     170 cpu clock= 2.60E-01
 tran: time= 8.1000E-09 tot_iter=     470 conv_iter=     193 cpu clock= 2.60E-01
 tran: time= 9.1100E-09 tot_iter=     526 conv_iter=     215 cpu clock= 2.60E-01
 tran: time= 1.0000E-08 tot_iter=     582 conv_iter=     239 cpu clock= 2.70E-01
 sweep: tran tran12   end,  cpu clock=  2.70E-01 peak memory=       183 mb
 data: data=mydata          r               =    1.00E+03
 dcop: begin dcop,  cpu clock=  2.70E-01
 dcop: end dcop,  cpu clock=  2.70E-01 peak memory=       183 mb  tot_iter=      52
 output: pi.mt0
 sweep: tran tran13   begin, stop_t=  1.00E-08 #sweeps=1001 cpu clock=  2.70E-01
 tran: time= 1.1100E-09 tot_iter=      69 conv_iter=      29 cpu clock= 2.70E-01
 tran: time= 2.1000E-09 tot_iter=     123 conv_iter=      52 cpu clock= 2.70E-01
 tran: time= 3.1100E-09 tot_iter=     181 conv_iter=      75 cpu clock= 2.70E-01
 tran: time= 4.0148E-09 tot_iter=     233 conv_iter=      97 cpu clock= 2.70E-01
 tran: time= 5.1100E-09 tot_iter=     293 conv_iter=     121 cpu clock= 2.70E-01
 tran: time= 6.0487E-09 tot_iter=     345 conv_iter=     143 cpu clock= 2.70E-01
 tran: time= 7.1100E-09 tot_iter=     403 conv_iter=     166 cpu clock= 2.70E-01
 tran: time= 8.1000E-09 tot_iter=     459 conv_iter=     190 cpu clock= 2.70E-01
 tran: time= 9.1100E-09 tot_iter=     517 conv_iter=     213 cpu clock= 2.70E-01
 tran: time= 1.0000E-08 tot_iter=     569 conv_iter=     235 cpu clock= 2.70E-01
 sweep: tran tran13   end,  cpu clock=  2.70E-01 peak memory=       183 mb
 data: data=mydata          r               =    1.00E+03
 dcop: begin dcop,  cpu clock=  2.80E-01
 dcop: end dcop,  cpu clock=  2.80E-01 peak memory=       183 mb  tot_iter=      56
 output: pi.mt0
 sweep: tran tran14   begin, stop_t=  1.00E-08 #sweeps=1001 cpu clock=  2.80E-01
 tran: time= 1.1100E-09 tot_iter=      69 conv_iter=      29 cpu clock= 2.80E-01
 tran: time= 2.1000E-09 tot_iter=     123 conv_iter=      52 cpu clock= 2.80E-01
 tran: time= 3.1100E-09 tot_iter=     181 conv_iter=      75 cpu clock= 2.80E-01
 tran: time= 4.0148E-09 tot_iter=     233 conv_iter=      97 cpu clock= 2.80E-01
 tran: time= 5.1100E-09 tot_iter=     293 conv_iter=     121 cpu clock= 2.80E-01
 tran: time= 6.0487E-09 tot_iter=     345 conv_iter=     143 cpu clock= 2.80E-01
 tran: time= 7.1100E-09 tot_iter=     403 conv_iter=     166 cpu clock= 2.90E-01
 tran: time= 8.1000E-09 tot_iter=     459 conv_iter=     190 cpu clock= 2.90E-01
 tran: time= 9.1100E-09 tot_iter=     517 conv_iter=     213 cpu clock= 2.90E-01
 tran: time= 1.0000E-08 tot_iter=     569 conv_iter=     235 cpu clock= 2.90E-01
 sweep: tran tran14   end,  cpu clock=  2.90E-01 peak memory=       183 mb
 data: data=mydata          r               =    1.00E+03
 dcop: begin dcop,  cpu clock=  2.90E-01
 dcop: end dcop,  cpu clock=  2.90E-01 peak memory=       183 mb  tot_iter=      60
 output: pi.mt0
 sweep: tran tran15   begin, stop_t=  1.00E-08 #sweeps=1001 cpu clock=  2.90E-01
 tran: time= 1.1100E-09 tot_iter=      69 conv_iter=      29 cpu clock= 2.90E-01
 tran: time= 2.1000E-09 tot_iter=     123 conv_iter=      52 cpu clock= 2.90E-01
 tran: time= 3.1100E-09 tot_iter=     181 conv_iter=      75 cpu clock= 3.00E-01
 tran: time= 4.0148E-09 tot_iter=     233 conv_iter=      97 cpu clock= 3.00E-01
 tran: time= 5.1100E-09 tot_iter=     293 conv_iter=     121 cpu clock= 3.00E-01
 tran: time= 6.0487E-09 tot_iter=     345 conv_iter=     143 cpu clock= 3.00E-01
 tran: time= 7.1100E-09 tot_iter=     403 conv_iter=     166 cpu clock= 3.00E-01
 tran: time= 8.1000E-09 tot_iter=     459 conv_iter=     190 cpu clock= 3.00E-01
 tran: time= 9.1100E-09 tot_iter=     517 conv_iter=     213 cpu clock= 3.00E-01
 tran: time= 1.0000E-08 tot_iter=     569 conv_iter=     235 cpu clock= 3.00E-01
 sweep: tran tran15   end,  cpu clock=  3.00E-01 peak memory=       183 mb
 data: data=mydata          r               =    1.00E+03
 dcop: begin dcop,  cpu clock=  3.10E-01
 dcop: end dcop,  cpu clock=  3.10E-01 peak memory=       183 mb  tot_iter=      64
 output: pi.mt0
 sweep: tran tran16   begin, stop_t=  1.00E-08 #sweeps=1001 cpu clock=  3.10E-01
 tran: time= 1.1100E-09 tot_iter=      69 conv_iter=      29 cpu clock= 3.10E-01
 tran: time= 2.1000E-09 tot_iter=     123 conv_iter=      52 cpu clock= 3.10E-01
 tran: time= 3.1100E-09 tot_iter=     181 conv_iter=      75 cpu clock= 3.10E-01
 tran: time= 4.0148E-09 tot_iter=     233 conv_iter=      97 cpu clock= 3.10E-01
 tran: time= 5.1100E-09 tot_iter=     293 conv_iter=     121 cpu clock= 3.10E-01
 tran: time= 6.0487E-09 tot_iter=     345 conv_iter=     143 cpu clock= 3.10E-01
 tran: time= 7.1100E-09 tot_iter=     403 conv_iter=     166 cpu clock= 3.10E-01
 tran: time= 8.1000E-09 tot_iter=     459 conv_iter=     190 cpu clock= 3.10E-01
 tran: time= 9.1100E-09 tot_iter=     517 conv_iter=     213 cpu clock= 3.10E-01
 tran: time= 1.0000E-08 tot_iter=     569 conv_iter=     235 cpu clock= 3.10E-01
 sweep: tran tran16   end,  cpu clock=  3.10E-01 peak memory=       183 mb
 data: data=mydata          r               =    1.00E+03
 dcop: begin dcop,  cpu clock=  3.20E-01
 dcop: end dcop,  cpu clock=  3.20E-01 peak memory=       183 mb  tot_iter=      68
 output: pi.mt0
 sweep: tran tran17   begin, stop_t=  1.00E-08 #sweeps=1001 cpu clock=  3.20E-01
 tran: time= 1.1100E-09 tot_iter=      69 conv_iter=      29 cpu clock= 3.20E-01
 tran: time= 2.1000E-09 tot_iter=     123 conv_iter=      52 cpu clock= 3.20E-01
 tran: time= 3.1100E-09 tot_iter=     181 conv_iter=      75 cpu clock= 3.20E-01
 tran: time= 4.0148E-09 tot_iter=     233 conv_iter=      97 cpu clock= 3.20E-01
 tran: time= 5.1100E-09 tot_iter=     293 conv_iter=     121 cpu clock= 3.20E-01
 tran: time= 6.0487E-09 tot_iter=     345 conv_iter=     143 cpu clock= 3.20E-01
 tran: time= 7.1100E-09 tot_iter=     403 conv_iter=     166 cpu clock= 3.20E-01
 tran: time= 8.1000E-09 tot_iter=     459 conv_iter=     190 cpu clock= 3.30E-01
 tran: time= 9.1100E-09 tot_iter=     517 conv_iter=     213 cpu clock= 3.30E-01
 tran: time= 1.0000E-08 tot_iter=     569 conv_iter=     235 cpu clock= 3.30E-01
 sweep: tran tran17   end,  cpu clock=  3.30E-01 peak memory=       183 mb
 data: data=mydata          r               =    1.00E+03
 dcop: begin dcop,  cpu clock=  3.30E-01
 dcop: end dcop,  cpu clock=  3.30E-01 peak memory=       183 mb  tot_iter=      72
 output: pi.mt0
 sweep: tran tran18   begin, stop_t=  1.00E-08 #sweeps=1001 cpu clock=  3.30E-01
 tran: time= 1.1100E-09 tot_iter=      69 conv_iter=      29 cpu clock= 3.30E-01
 tran: time= 2.1000E-09 tot_iter=     123 conv_iter=      52 cpu clock= 3.30E-01
 tran: time= 3.1100E-09 tot_iter=     181 conv_iter=      75 cpu clock= 3.30E-01
 tran: time= 4.0148E-09 tot_iter=     233 conv_iter=      97 cpu clock= 3.30E-01
 tran: time= 5.1100E-09 tot_iter=     293 conv_iter=     121 cpu clock= 3.30E-01
 tran: time= 6.0487E-09 tot_iter=     345 conv_iter=     143 cpu clock= 3.40E-01
 tran: time= 7.1100E-09 tot_iter=     403 conv_iter=     166 cpu clock= 3.40E-01
 tran: time= 8.1000E-09 tot_iter=     459 conv_iter=     190 cpu clock= 3.40E-01
 tran: time= 9.1100E-09 tot_iter=     517 conv_iter=     213 cpu clock= 3.40E-01
 tran: time= 1.0000E-08 tot_iter=     569 conv_iter=     235 cpu clock= 3.40E-01
 sweep: tran tran18   end,  cpu clock=  3.40E-01 peak memory=       183 mb
 data: data=mydata          r               =    1.00E+03
 dcop: begin dcop,  cpu clock=  3.40E-01
 dcop: end dcop,  cpu clock=  3.40E-01 peak memory=       183 mb  tot_iter=      76
 output: pi.mt0
 sweep: tran tran19   begin, stop_t=  1.00E-08 #sweeps=1001 cpu clock=  3.40E-01
 tran: time= 1.1100E-09 tot_iter=      67 conv_iter=      29 cpu clock= 3.50E-01
 tran: time= 2.1000E-09 tot_iter=     123 conv_iter=      52 cpu clock= 3.50E-01
 tran: time= 3.1100E-09 tot_iter=     177 conv_iter=      75 cpu clock= 3.50E-01
 tran: time= 4.1000E-09 tot_iter=     233 conv_iter=      98 cpu clock= 3.50E-01
 tran: time= 5.1100E-09 tot_iter=     287 conv_iter=     121 cpu clock= 3.50E-01
 tran: time= 6.1000E-09 tot_iter=     343 conv_iter=     144 cpu clock= 3.50E-01
 tran: time= 7.1100E-09 tot_iter=     397 conv_iter=     167 cpu clock= 3.50E-01
 tran: time= 8.1000E-09 tot_iter=     453 conv_iter=     190 cpu clock= 3.50E-01
 tran: time= 9.1100E-09 tot_iter=     507 conv_iter=     213 cpu clock= 3.50E-01
 tran: time= 1.0000E-08 tot_iter=     563 conv_iter=     236 cpu clock= 3.50E-01
 sweep: tran tran19   end,  cpu clock=  3.50E-01 peak memory=       183 mb
 data: data=mydata          r               =    1.00E+03
 dcop: begin dcop,  cpu clock=  3.60E-01
 dcop: end dcop,  cpu clock=  3.60E-01 peak memory=       183 mb  tot_iter=      80
 output: pi.mt0
 sweep: tran tran20   begin, stop_t=  1.00E-08 #sweeps=1001 cpu clock=  3.60E-01
 tran: time= 1.1100E-09 tot_iter=      67 conv_iter=      29 cpu clock= 3.60E-01
 tran: time= 2.1000E-09 tot_iter=     123 conv_iter=      52 cpu clock= 3.60E-01
 tran: time= 3.1100E-09 tot_iter=     177 conv_iter=      75 cpu clock= 3.60E-01
 tran: time= 4.1000E-09 tot_iter=     233 conv_iter=      98 cpu clock= 3.60E-01
 tran: time= 5.1100E-09 tot_iter=     287 conv_iter=     121 cpu clock= 3.60E-01
 tran: time= 6.1000E-09 tot_iter=     343 conv_iter=     144 cpu clock= 3.60E-01
 tran: time= 7.1100E-09 tot_iter=     397 conv_iter=     167 cpu clock= 3.60E-01
 tran: time= 8.1000E-09 tot_iter=     453 conv_iter=     190 cpu clock= 3.60E-01
 tran: time= 9.1100E-09 tot_iter=     507 conv_iter=     213 cpu clock= 3.60E-01
 tran: time= 1.0000E-08 tot_iter=     563 conv_iter=     236 cpu clock= 3.70E-01
 sweep: tran tran20   end,  cpu clock=  3.70E-01 peak memory=       183 mb
 data: data=mydata          r               =    1.00E+03
 dcop: begin dcop,  cpu clock=  3.70E-01
 dcop: end dcop,  cpu clock=  3.70E-01 peak memory=       183 mb  tot_iter=      84
 output: pi.mt0
 sweep: tran tran21   begin, stop_t=  1.00E-08 #sweeps=1001 cpu clock=  3.70E-01
 tran: time= 1.1100E-09 tot_iter=      67 conv_iter=      29 cpu clock= 3.70E-01
 tran: time= 2.1000E-09 tot_iter=     123 conv_iter=      52 cpu clock= 3.70E-01
 tran: time= 3.1100E-09 tot_iter=     177 conv_iter=      75 cpu clock= 3.70E-01
 tran: time= 4.1000E-09 tot_iter=     233 conv_iter=      98 cpu clock= 3.70E-01
 tran: time= 5.1100E-09 tot_iter=     287 conv_iter=     121 cpu clock= 3.70E-01
 tran: time= 6.1000E-09 tot_iter=     343 conv_iter=     144 cpu clock= 3.70E-01
 tran: time= 7.1100E-09 tot_iter=     397 conv_iter=     167 cpu clock= 3.80E-01
 tran: time= 8.1000E-09 tot_iter=     453 conv_iter=     190 cpu clock= 3.80E-01
 tran: time= 9.1100E-09 tot_iter=     507 conv_iter=     213 cpu clock= 3.80E-01
 tran: time= 1.0000E-08 tot_iter=     563 conv_iter=     236 cpu clock= 3.80E-01
 sweep: tran tran21   end,  cpu clock=  3.80E-01 peak memory=       183 mb
 data: data=mydata          r               =    1.00E+03
 dcop: begin dcop,  cpu clock=  3.80E-01
 dcop: end dcop,  cpu clock=  3.80E-01 peak memory=       183 mb  tot_iter=      88
 output: pi.mt0
 sweep: tran tran22   begin, stop_t=  1.00E-08 #sweeps=1001 cpu clock=  3.80E-01
 tran: time= 1.1100E-09 tot_iter=      67 conv_iter=      29 cpu clock= 3.90E-01
 tran: time= 2.1000E-09 tot_iter=     123 conv_iter=      52 cpu clock= 3.90E-01
 tran: time= 3.1100E-09 tot_iter=     177 conv_iter=      75 cpu clock= 3.90E-01
 tran: time= 4.1000E-09 tot_iter=     233 conv_iter=      98 cpu clock= 3.90E-01
 tran: time= 5.1100E-09 tot_iter=     287 conv_iter=     121 cpu clock= 3.90E-01
 tran: time= 6.1000E-09 tot_iter=     343 conv_iter=     144 cpu clock= 3.90E-01
 tran: time= 7.1100E-09 tot_iter=     397 conv_iter=     167 cpu clock= 3.90E-01
 tran: time= 8.1000E-09 tot_iter=     453 conv_iter=     190 cpu clock= 3.90E-01
 tran: time= 9.1100E-09 tot_iter=     507 conv_iter=     213 cpu clock= 3.90E-01
 tran: time= 1.0000E-08 tot_iter=     563 conv_iter=     236 cpu clock= 4.00E-01
 sweep: tran tran22   end,  cpu clock=  4.00E-01 peak memory=       183 mb
 data: data=mydata          r               =    1.00E+03
 dcop: begin dcop,  cpu clock=  4.00E-01
 dcop: end dcop,  cpu clock=  4.00E-01 peak memory=       183 mb  tot_iter=      92
 output: pi.mt0
 sweep: tran tran23   begin, stop_t=  1.00E-08 #sweeps=1001 cpu clock=  4.00E-01
 tran: time= 1.1100E-09 tot_iter=      67 conv_iter=      29 cpu clock= 4.00E-01
 tran: time= 2.1000E-09 tot_iter=     123 conv_iter=      52 cpu clock= 4.00E-01
 tran: time= 3.1100E-09 tot_iter=     177 conv_iter=      75 cpu clock= 4.00E-01
 tran: time= 4.1000E-09 tot_iter=     233 conv_iter=      98 cpu clock= 4.00E-01
 tran: time= 5.1100E-09 tot_iter=     287 conv_iter=     121 cpu clock= 4.00E-01
 tran: time= 6.1000E-09 tot_iter=     343 conv_iter=     144 cpu clock= 4.10E-01
 tran: time= 7.1100E-09 tot_iter=     397 conv_iter=     167 cpu clock= 4.10E-01
 tran: time= 8.1000E-09 tot_iter=     453 conv_iter=     190 cpu clock= 4.10E-01
 tran: time= 9.1100E-09 tot_iter=     507 conv_iter=     213 cpu clock= 4.10E-01
 tran: time= 1.0000E-08 tot_iter=     563 conv_iter=     236 cpu clock= 4.10E-01
 sweep: tran tran23   end,  cpu clock=  4.10E-01 peak memory=       183 mb
 data: data=mydata          r               =    1.00E+03
 dcop: begin dcop,  cpu clock=  4.10E-01
 dcop: end dcop,  cpu clock=  4.10E-01 peak memory=       183 mb  tot_iter=      96
 output: pi.mt0
 sweep: tran tran24   begin, stop_t=  1.00E-08 #sweeps=1001 cpu clock=  4.10E-01
 tran: time= 1.1100E-09 tot_iter=      67 conv_iter=      29 cpu clock= 4.10E-01
 tran: time= 2.1000E-09 tot_iter=     123 conv_iter=      52 cpu clock= 4.10E-01
 tran: time= 3.1100E-09 tot_iter=     177 conv_iter=      75 cpu clock= 4.20E-01
 tran: time= 4.1000E-09 tot_iter=     233 conv_iter=      98 cpu clock= 4.20E-01
 tran: time= 5.1100E-09 tot_iter=     287 conv_iter=     121 cpu clock= 4.20E-01
 tran: time= 6.1000E-09 tot_iter=     343 conv_iter=     144 cpu clock= 4.20E-01
 tran: time= 7.1100E-09 tot_iter=     397 conv_iter=     167 cpu clock= 4.20E-01
 tran: time= 8.1000E-09 tot_iter=     453 conv_iter=     190 cpu clock= 4.20E-01
 tran: time= 9.1100E-09 tot_iter=     507 conv_iter=     213 cpu clock= 4.20E-01
 tran: time= 1.0000E-08 tot_iter=     563 conv_iter=     236 cpu clock= 4.20E-01
 sweep: tran tran24   end,  cpu clock=  4.20E-01 peak memory=       183 mb
 data: data=mydata          r               =    1.00E+03
 dcop: begin dcop,  cpu clock=  4.30E-01
 dcop: end dcop,  cpu clock=  4.30E-01 peak memory=       183 mb  tot_iter=     100
 output: pi.mt0
 sweep: tran tran25   begin, stop_t=  1.00E-08 #sweeps=1001 cpu clock=  4.30E-01
 tran: time= 1.1100E-09 tot_iter=      69 conv_iter=      29 cpu clock= 4.30E-01
 tran: time= 2.0101E-09 tot_iter=     122 conv_iter=      51 cpu clock= 4.30E-01
 tran: time= 3.1100E-09 tot_iter=     179 conv_iter=      75 cpu clock= 4.30E-01
 tran: time= 4.0161E-09 tot_iter=     232 conv_iter=      97 cpu clock= 4.30E-01
 tran: time= 5.1100E-09 tot_iter=     289 conv_iter=     121 cpu clock= 4.30E-01
 tran: time= 6.0156E-09 tot_iter=     342 conv_iter=     143 cpu clock= 4.30E-01
 tran: time= 7.1100E-09 tot_iter=     399 conv_iter=     167 cpu clock= 4.30E-01
 tran: time= 8.0157E-09 tot_iter=     452 conv_iter=     189 cpu clock= 4.40E-01
 tran: time= 9.1100E-09 tot_iter=     509 conv_iter=     213 cpu clock= 4.40E-01
 tran: time= 1.0000E-08 tot_iter=     562 conv_iter=     235 cpu clock= 4.40E-01
 sweep: tran tran25   end,  cpu clock=  4.40E-01 peak memory=       183 mb
 data: data=mydata          r               =    1.00E+03
 dcop: begin dcop,  cpu clock=  4.40E-01
 dcop: end dcop,  cpu clock=  4.40E-01 peak memory=       183 mb  tot_iter=     104
 output: pi.mt0
 sweep: tran tran26   begin, stop_t=  1.00E-08 #sweeps=1001 cpu clock=  4.40E-01
 tran: time= 1.1100E-09 tot_iter=      69 conv_iter=      29 cpu clock= 4.40E-01
 tran: time= 2.0101E-09 tot_iter=     122 conv_iter=      51 cpu clock= 4.40E-01
 tran: time= 3.1100E-09 tot_iter=     179 conv_iter=      75 cpu clock= 4.40E-01
 tran: time= 4.0161E-09 tot_iter=     232 conv_iter=      97 cpu clock= 4.40E-01
 tran: time= 5.1100E-09 tot_iter=     289 conv_iter=     121 cpu clock= 4.40E-01
 tran: time= 6.0156E-09 tot_iter=     342 conv_iter=     143 cpu clock= 4.40E-01
 tran: time= 7.1100E-09 tot_iter=     399 conv_iter=     167 cpu clock= 4.40E-01
 tran: time= 8.0157E-09 tot_iter=     452 conv_iter=     189 cpu clock= 4.50E-01
 tran: time= 9.1100E-09 tot_iter=     509 conv_iter=     213 cpu clock= 4.50E-01
 tran: time= 1.0000E-08 tot_iter=     562 conv_iter=     235 cpu clock= 4.50E-01
 sweep: tran tran26   end,  cpu clock=  4.50E-01 peak memory=       183 mb
 data: data=mydata          r               =    1.00E+03
 dcop: begin dcop,  cpu clock=  4.50E-01
 dcop: end dcop,  cpu clock=  4.50E-01 peak memory=       183 mb  tot_iter=     108
 output: pi.mt0
 sweep: tran tran27   begin, stop_t=  1.00E-08 #sweeps=1001 cpu clock=  4.50E-01
 tran: time= 1.1100E-09 tot_iter=      69 conv_iter=      29 cpu clock= 4.50E-01
 tran: time= 2.0101E-09 tot_iter=     122 conv_iter=      51 cpu clock= 4.50E-01
 tran: time= 3.1100E-09 tot_iter=     179 conv_iter=      75 cpu clock= 4.60E-01
 tran: time= 4.0161E-09 tot_iter=     232 conv_iter=      97 cpu clock= 4.60E-01
 tran: time= 5.1100E-09 tot_iter=     289 conv_iter=     121 cpu clock= 4.60E-01
 tran: time= 6.0156E-09 tot_iter=     342 conv_iter=     143 cpu clock= 4.60E-01
 tran: time= 7.1100E-09 tot_iter=     399 conv_iter=     167 cpu clock= 4.60E-01
 tran: time= 8.0157E-09 tot_iter=     452 conv_iter=     189 cpu clock= 4.60E-01
 tran: time= 9.1100E-09 tot_iter=     509 conv_iter=     213 cpu clock= 4.60E-01
 tran: time= 1.0000E-08 tot_iter=     562 conv_iter=     235 cpu clock= 4.60E-01
 sweep: tran tran27   end,  cpu clock=  4.60E-01 peak memory=       183 mb
 data: data=mydata          r               =    1.00E+03
 dcop: begin dcop,  cpu clock=  4.70E-01
 dcop: end dcop,  cpu clock=  4.70E-01 peak memory=       183 mb  tot_iter=     112
 output: pi.mt0
 sweep: tran tran28   begin, stop_t=  1.00E-08 #sweeps=1001 cpu clock=  4.70E-01
 tran: time= 1.1100E-09 tot_iter=      69 conv_iter=      29 cpu clock= 4.70E-01
 tran: time= 2.0101E-09 tot_iter=     122 conv_iter=      51 cpu clock= 4.70E-01
 tran: time= 3.1100E-09 tot_iter=     179 conv_iter=      75 cpu clock= 4.70E-01
 tran: time= 4.0161E-09 tot_iter=     232 conv_iter=      97 cpu clock= 4.70E-01
 tran: time= 5.1100E-09 tot_iter=     289 conv_iter=     121 cpu clock= 4.70E-01
 tran: time= 6.0156E-09 tot_iter=     342 conv_iter=     143 cpu clock= 4.70E-01
 tran: time= 7.1100E-09 tot_iter=     399 conv_iter=     167 cpu clock= 4.80E-01
 tran: time= 8.0157E-09 tot_iter=     452 conv_iter=     189 cpu clock= 4.80E-01
 tran: time= 9.1100E-09 tot_iter=     509 conv_iter=     213 cpu clock= 4.80E-01
 tran: time= 1.0000E-08 tot_iter=     562 conv_iter=     235 cpu clock= 4.80E-01
 sweep: tran tran28   end,  cpu clock=  4.80E-01 peak memory=       183 mb
 data: data=mydata          r               =    1.00E+03
 dcop: begin dcop,  cpu clock=  4.80E-01
 dcop: end dcop,  cpu clock=  4.80E-01 peak memory=       183 mb  tot_iter=     116
 output: pi.mt0
 sweep: tran tran29   begin, stop_t=  1.00E-08 #sweeps=1001 cpu clock=  4.80E-01
 tran: time= 1.1100E-09 tot_iter=      69 conv_iter=      29 cpu clock= 4.80E-01
 tran: time= 2.0101E-09 tot_iter=     122 conv_iter=      51 cpu clock= 4.80E-01
 tran: time= 3.1100E-09 tot_iter=     179 conv_iter=      75 cpu clock= 4.80E-01
 tran: time= 4.0161E-09 tot_iter=     232 conv_iter=      97 cpu clock= 4.80E-01
 tran: time= 5.1100E-09 tot_iter=     289 conv_iter=     121 cpu clock= 4.80E-01
 tran: time= 6.0156E-09 tot_iter=     342 conv_iter=     143 cpu clock= 4.80E-01
 tran: time= 7.1100E-09 tot_iter=     399 conv_iter=     167 cpu clock= 4.90E-01
 tran: time= 8.0157E-09 tot_iter=     452 conv_iter=     189 cpu clock= 4.90E-01
 tran: time= 9.1100E-09 tot_iter=     509 conv_iter=     213 cpu clock= 4.90E-01
 tran: time= 1.0000E-08 tot_iter=     562 conv_iter=     235 cpu clock= 4.90E-01
 sweep: tran tran29   end,  cpu clock=  4.90E-01 peak memory=       183 mb
 data: data=mydata          r               =    1.00E+03
 dcop: begin dcop,  cpu clock=  4.90E-01
 dcop: end dcop,  cpu clock=  4.90E-01 peak memory=       183 mb  tot_iter=     120
 output: pi.mt0
 sweep: tran tran30   begin, stop_t=  1.00E-08 #sweeps=1001 cpu clock=  4.90E-01
 tran: time= 1.1100E-09 tot_iter=      69 conv_iter=      29 cpu clock= 4.90E-01
 tran: time= 2.0101E-09 tot_iter=     122 conv_iter=      51 cpu clock= 4.90E-01
 tran: time= 3.1100E-09 tot_iter=     179 conv_iter=      75 cpu clock= 5.00E-01
 tran: time= 4.0161E-09 tot_iter=     232 conv_iter=      97 cpu clock= 5.00E-01
 tran: time= 5.1100E-09 tot_iter=     289 conv_iter=     121 cpu clock= 5.00E-01
 tran: time= 6.0156E-09 tot_iter=     342 conv_iter=     143 cpu clock= 5.00E-01
 tran: time= 7.1100E-09 tot_iter=     399 conv_iter=     167 cpu clock= 5.00E-01
 tran: time= 8.0157E-09 tot_iter=     452 conv_iter=     189 cpu clock= 5.00E-01
 tran: time= 9.1100E-09 tot_iter=     509 conv_iter=     213 cpu clock= 5.00E-01
 tran: time= 1.0000E-08 tot_iter=     562 conv_iter=     235 cpu clock= 5.10E-01
 sweep: tran tran30   end,  cpu clock=  5.10E-01 peak memory=       183 mb
 data: data=mydata          r               =    1.00E+03
 dcop: begin dcop,  cpu clock=  5.10E-01
 dcop: end dcop,  cpu clock=  5.10E-01 peak memory=       183 mb  tot_iter=     124
 output: pi.mt0
 sweep: tran tran31   begin, stop_t=  1.00E-08 #sweeps=1001 cpu clock=  5.10E-01
 tran: time= 1.1100E-09 tot_iter=      68 conv_iter=      29 cpu clock= 5.10E-01
 tran: time= 2.1000E-09 tot_iter=     121 conv_iter=      51 cpu clock= 5.10E-01
 tran: time= 3.1100E-09 tot_iter=     175 conv_iter=      74 cpu clock= 5.10E-01
 tran: time= 4.1000E-09 tot_iter=     228 conv_iter=      96 cpu clock= 5.10E-01
 tran: time= 5.1100E-09 tot_iter=     282 conv_iter=     119 cpu clock= 5.10E-01
 tran: time= 6.1000E-09 tot_iter=     335 conv_iter=     141 cpu clock= 5.10E-01
 tran: time= 7.1100E-09 tot_iter=     389 conv_iter=     164 cpu clock= 5.20E-01
 tran: time= 8.1000E-09 tot_iter=     442 conv_iter=     186 cpu clock= 5.20E-01
 tran: time= 9.1100E-09 tot_iter=     496 conv_iter=     209 cpu clock= 5.20E-01
 tran: time= 1.0000E-08 tot_iter=     549 conv_iter=     231 cpu clock= 5.20E-01
 sweep: tran tran31   end,  cpu clock=  5.20E-01 peak memory=       183 mb
 data: data=mydata          r               =    1.00E+03
 dcop: begin dcop,  cpu clock=  5.20E-01
 dcop: end dcop,  cpu clock=  5.20E-01 peak memory=       183 mb  tot_iter=     128
 output: pi.mt0
 sweep: tran tran32   begin, stop_t=  1.00E-08 #sweeps=1001 cpu clock=  5.20E-01
 tran: time= 1.1100E-09 tot_iter=      68 conv_iter=      29 cpu clock= 5.20E-01
 tran: time= 2.1000E-09 tot_iter=     121 conv_iter=      51 cpu clock= 5.20E-01
 tran: time= 3.1100E-09 tot_iter=     175 conv_iter=      74 cpu clock= 5.20E-01
 tran: time= 4.1000E-09 tot_iter=     228 conv_iter=      96 cpu clock= 5.20E-01
 tran: time= 5.1100E-09 tot_iter=     282 conv_iter=     119 cpu clock= 5.30E-01
 tran: time= 6.1000E-09 tot_iter=     335 conv_iter=     141 cpu clock= 5.30E-01
 tran: time= 7.1100E-09 tot_iter=     389 conv_iter=     164 cpu clock= 5.30E-01
 tran: time= 8.1000E-09 tot_iter=     442 conv_iter=     186 cpu clock= 5.30E-01
 tran: time= 9.1100E-09 tot_iter=     496 conv_iter=     209 cpu clock= 5.30E-01
 tran: time= 1.0000E-08 tot_iter=     549 conv_iter=     231 cpu clock= 5.30E-01
 sweep: tran tran32   end,  cpu clock=  5.30E-01 peak memory=       183 mb
 data: data=mydata          r               =    1.00E+03
 dcop: begin dcop,  cpu clock=  5.40E-01
 dcop: end dcop,  cpu clock=  5.40E-01 peak memory=       183 mb  tot_iter=     132
 output: pi.mt0
 sweep: tran tran33   begin, stop_t=  1.00E-08 #sweeps=1001 cpu clock=  5.40E-01
 tran: time= 1.1100E-09 tot_iter=      68 conv_iter=      29 cpu clock= 5.40E-01
 tran: time= 2.1000E-09 tot_iter=     121 conv_iter=      51 cpu clock= 5.40E-01
 tran: time= 3.1100E-09 tot_iter=     175 conv_iter=      74 cpu clock= 5.40E-01
 tran: time= 4.1000E-09 tot_iter=     228 conv_iter=      96 cpu clock= 5.40E-01
 tran: time= 5.1100E-09 tot_iter=     282 conv_iter=     119 cpu clock= 5.40E-01
 tran: time= 6.1000E-09 tot_iter=     335 conv_iter=     141 cpu clock= 5.40E-01
 tran: time= 7.1100E-09 tot_iter=     389 conv_iter=     164 cpu clock= 5.40E-01
 tran: time= 8.1000E-09 tot_iter=     442 conv_iter=     186 cpu clock= 5.40E-01
 tran: time= 9.1100E-09 tot_iter=     496 conv_iter=     209 cpu clock= 5.50E-01
 tran: time= 1.0000E-08 tot_iter=     549 conv_iter=     231 cpu clock= 5.50E-01
 sweep: tran tran33   end,  cpu clock=  5.50E-01 peak memory=       183 mb
 data: data=mydata          r               =    1.00E+03
 dcop: begin dcop,  cpu clock=  5.50E-01
 dcop: end dcop,  cpu clock=  5.50E-01 peak memory=       183 mb  tot_iter=     136
 output: pi.mt0
 sweep: tran tran34   begin, stop_t=  1.00E-08 #sweeps=1001 cpu clock=  5.50E-01
 tran: time= 1.1100E-09 tot_iter=      68 conv_iter=      29 cpu clock= 5.50E-01
 tran: time= 2.1000E-09 tot_iter=     121 conv_iter=      51 cpu clock= 5.50E-01
 tran: time= 3.1100E-09 tot_iter=     175 conv_iter=      74 cpu clock= 5.50E-01
 tran: time= 4.1000E-09 tot_iter=     228 conv_iter=      96 cpu clock= 5.50E-01
 tran: time= 5.1100E-09 tot_iter=     282 conv_iter=     119 cpu clock= 5.50E-01
 tran: time= 6.1000E-09 tot_iter=     335 conv_iter=     141 cpu clock= 5.50E-01
 tran: time= 7.1100E-09 tot_iter=     389 conv_iter=     164 cpu clock= 5.60E-01
 tran: time= 8.1000E-09 tot_iter=     442 conv_iter=     186 cpu clock= 5.60E-01
 tran: time= 9.1100E-09 tot_iter=     496 conv_iter=     209 cpu clock= 5.60E-01
 tran: time= 1.0000E-08 tot_iter=     549 conv_iter=     231 cpu clock= 5.60E-01
 sweep: tran tran34   end,  cpu clock=  5.60E-01 peak memory=       183 mb
 data: data=mydata          r               =    1.00E+03
 dcop: begin dcop,  cpu clock=  5.60E-01
 dcop: end dcop,  cpu clock=  5.60E-01 peak memory=       183 mb  tot_iter=     140
 output: pi.mt0
 sweep: tran tran35   begin, stop_t=  1.00E-08 #sweeps=1001 cpu clock=  5.60E-01
 tran: time= 1.1100E-09 tot_iter=      68 conv_iter=      29 cpu clock= 5.70E-01
 tran: time= 2.1000E-09 tot_iter=     121 conv_iter=      51 cpu clock= 5.70E-01
 tran: time= 3.1100E-09 tot_iter=     175 conv_iter=      74 cpu clock= 5.70E-01
 tran: time= 4.1000E-09 tot_iter=     228 conv_iter=      96 cpu clock= 5.70E-01
 tran: time= 5.1100E-09 tot_iter=     282 conv_iter=     119 cpu clock= 5.70E-01
 tran: time= 6.1000E-09 tot_iter=     335 conv_iter=     141 cpu clock= 5.70E-01
 tran: time= 7.1100E-09 tot_iter=     389 conv_iter=     164 cpu clock= 5.70E-01
 tran: time= 8.1000E-09 tot_iter=     442 conv_iter=     186 cpu clock= 5.70E-01
 tran: time= 9.1100E-09 tot_iter=     496 conv_iter=     209 cpu clock= 5.70E-01
 tran: time= 1.0000E-08 tot_iter=     549 conv_iter=     231 cpu clock= 5.70E-01
 sweep: tran tran35   end,  cpu clock=  5.70E-01 peak memory=       183 mb
 data: data=mydata          r               =    1.00E+03
 dcop: begin dcop,  cpu clock=  5.80E-01
 dcop: end dcop,  cpu clock=  5.80E-01 peak memory=       183 mb  tot_iter=     144
 output: pi.mt0
 sweep: tran tran36   begin, stop_t=  1.00E-08 #sweeps=1001 cpu clock=  5.80E-01
 tran: time= 1.1100E-09 tot_iter=      68 conv_iter=      29 cpu clock= 5.80E-01
 tran: time= 2.1000E-09 tot_iter=     121 conv_iter=      51 cpu clock= 5.80E-01
 tran: time= 3.1100E-09 tot_iter=     175 conv_iter=      74 cpu clock= 5.80E-01
 tran: time= 4.1000E-09 tot_iter=     228 conv_iter=      96 cpu clock= 5.80E-01
 tran: time= 5.1100E-09 tot_iter=     282 conv_iter=     119 cpu clock= 5.80E-01
 tran: time= 6.1000E-09 tot_iter=     335 conv_iter=     141 cpu clock= 5.80E-01
 tran: time= 7.1100E-09 tot_iter=     389 conv_iter=     164 cpu clock= 5.80E-01
 tran: time= 8.1000E-09 tot_iter=     442 conv_iter=     186 cpu clock= 5.80E-01
 tran: time= 9.1100E-09 tot_iter=     496 conv_iter=     209 cpu clock= 5.80E-01
 tran: time= 1.0000E-08 tot_iter=     549 conv_iter=     231 cpu clock= 5.90E-01
 sweep: tran tran36   end,  cpu clock=  5.90E-01 peak memory=       183 mb
 data: data=mydata          r               =    1.00E+03
 dcop: begin dcop,  cpu clock=  5.90E-01
 dcop: end dcop,  cpu clock=  5.90E-01 peak memory=       183 mb  tot_iter=     148
 output: pi.mt0
 sweep: tran tran37   begin, stop_t=  1.00E-08 #sweeps=1001 cpu clock=  5.90E-01
 tran: time= 1.0077E-09 tot_iter=      65 conv_iter=      28 cpu clock= 5.90E-01
 tran: time= 2.0019E-09 tot_iter=     118 conv_iter=      50 cpu clock= 5.90E-01
 tran: time= 3.0166E-09 tot_iter=     172 conv_iter=      73 cpu clock= 5.90E-01
 tran: time= 4.0025E-09 tot_iter=     225 conv_iter=      95 cpu clock= 5.90E-01
 tran: time= 5.0161E-09 tot_iter=     279 conv_iter=     118 cpu clock= 5.90E-01
 tran: time= 6.0025E-09 tot_iter=     332 conv_iter=     140 cpu clock= 5.90E-01
 tran: time= 7.0162E-09 tot_iter=     386 conv_iter=     163 cpu clock= 5.90E-01
 tran: time= 8.0025E-09 tot_iter=     439 conv_iter=     185 cpu clock= 5.90E-01
 tran: time= 9.0162E-09 tot_iter=     493 conv_iter=     208 cpu clock= 6.00E-01
 tran: time= 1.0000E-08 tot_iter=     546 conv_iter=     230 cpu clock= 6.00E-01
 sweep: tran tran37   end,  cpu clock=  6.00E-01 peak memory=       183 mb
 data: data=mydata          r               =    1.00E+03
 dcop: begin dcop,  cpu clock=  6.00E-01
 dcop: end dcop,  cpu clock=  6.00E-01 peak memory=       183 mb  tot_iter=     152
 output: pi.mt0
 sweep: tran tran38   begin, stop_t=  1.00E-08 #sweeps=1001 cpu clock=  6.00E-01
 tran: time= 1.0077E-09 tot_iter=      65 conv_iter=      28 cpu clock= 6.00E-01
 tran: time= 2.0019E-09 tot_iter=     118 conv_iter=      50 cpu clock= 6.00E-01
 tran: time= 3.0166E-09 tot_iter=     172 conv_iter=      73 cpu clock= 6.00E-01
 tran: time= 4.0025E-09 tot_iter=     225 conv_iter=      95 cpu clock= 6.00E-01
 tran: time= 5.0161E-09 tot_iter=     279 conv_iter=     118 cpu clock= 6.00E-01
 tran: time= 6.0025E-09 tot_iter=     332 conv_iter=     140 cpu clock= 6.00E-01
 tran: time= 7.0162E-09 tot_iter=     386 conv_iter=     163 cpu clock= 6.10E-01
 tran: time= 8.0025E-09 tot_iter=     439 conv_iter=     185 cpu clock= 6.10E-01
 tran: time= 9.0162E-09 tot_iter=     493 conv_iter=     208 cpu clock= 6.10E-01
 tran: time= 1.0000E-08 tot_iter=     546 conv_iter=     230 cpu clock= 6.10E-01
 sweep: tran tran38   end,  cpu clock=  6.10E-01 peak memory=       183 mb
 data: data=mydata          r               =    1.00E+03
 dcop: begin dcop,  cpu clock=  6.10E-01
 dcop: end dcop,  cpu clock=  6.10E-01 peak memory=       183 mb  tot_iter=     156
 output: pi.mt0
 sweep: tran tran39   begin, stop_t=  1.00E-08 #sweeps=1001 cpu clock=  6.10E-01
 tran: time= 1.0077E-09 tot_iter=      65 conv_iter=      28 cpu clock= 6.10E-01
 tran: time= 2.0019E-09 tot_iter=     118 conv_iter=      50 cpu clock= 6.20E-01
 tran: time= 3.0166E-09 tot_iter=     172 conv_iter=      73 cpu clock= 6.20E-01
 tran: time= 4.0025E-09 tot_iter=     225 conv_iter=      95 cpu clock= 6.20E-01
 tran: time= 5.0161E-09 tot_iter=     279 conv_iter=     118 cpu clock= 6.20E-01
 tran: time= 6.0025E-09 tot_iter=     332 conv_iter=     140 cpu clock= 6.20E-01
 tran: time= 7.0162E-09 tot_iter=     386 conv_iter=     163 cpu clock= 6.20E-01
 tran: time= 8.0025E-09 tot_iter=     439 conv_iter=     185 cpu clock= 6.20E-01
 tran: time= 9.0162E-09 tot_iter=     493 conv_iter=     208 cpu clock= 6.20E-01
 tran: time= 1.0000E-08 tot_iter=     546 conv_iter=     230 cpu clock= 6.20E-01
 sweep: tran tran39   end,  cpu clock=  6.30E-01 peak memory=       183 mb
 data: data=mydata          r               =    1.00E+03
 dcop: begin dcop,  cpu clock=  6.30E-01
 dcop: end dcop,  cpu clock=  6.30E-01 peak memory=       183 mb  tot_iter=     160
 output: pi.mt0
 sweep: tran tran40   begin, stop_t=  1.00E-08 #sweeps=1001 cpu clock=  6.30E-01
 tran: time= 1.0077E-09 tot_iter=      65 conv_iter=      28 cpu clock= 6.30E-01
 tran: time= 2.0019E-09 tot_iter=     118 conv_iter=      50 cpu clock= 6.30E-01
 tran: time= 3.0166E-09 tot_iter=     172 conv_iter=      73 cpu clock= 6.30E-01
 tran: time= 4.0025E-09 tot_iter=     225 conv_iter=      95 cpu clock= 6.30E-01
 tran: time= 5.0161E-09 tot_iter=     279 conv_iter=     118 cpu clock= 6.30E-01
 tran: time= 6.0025E-09 tot_iter=     332 conv_iter=     140 cpu clock= 6.30E-01
 tran: time= 7.0162E-09 tot_iter=     386 conv_iter=     163 cpu clock= 6.40E-01
 tran: time= 8.0025E-09 tot_iter=     439 conv_iter=     185 cpu clock= 6.40E-01
 tran: time= 9.0162E-09 tot_iter=     493 conv_iter=     208 cpu clock= 6.40E-01
 tran: time= 1.0000E-08 tot_iter=     546 conv_iter=     230 cpu clock= 6.40E-01
 sweep: tran tran40   end,  cpu clock=  6.40E-01 peak memory=       183 mb
 data: data=mydata          r               =    1.00E+03
 dcop: begin dcop,  cpu clock=  6.40E-01
 dcop: end dcop,  cpu clock=  6.40E-01 peak memory=       184 mb  tot_iter=     164
 output: pi.mt0
 sweep: tran tran41   begin, stop_t=  1.00E-08 #sweeps=1001 cpu clock=  6.40E-01
 tran: time= 1.0077E-09 tot_iter=      65 conv_iter=      28 cpu clock= 6.40E-01
 tran: time= 2.0019E-09 tot_iter=     118 conv_iter=      50 cpu clock= 6.40E-01
 tran: time= 3.0166E-09 tot_iter=     172 conv_iter=      73 cpu clock= 6.40E-01
 tran: time= 4.0025E-09 tot_iter=     225 conv_iter=      95 cpu clock= 6.40E-01
 tran: time= 5.0161E-09 tot_iter=     279 conv_iter=     118 cpu clock= 6.50E-01
 tran: time= 6.0025E-09 tot_iter=     332 conv_iter=     140 cpu clock= 6.50E-01
 tran: time= 7.0162E-09 tot_iter=     386 conv_iter=     163 cpu clock= 6.50E-01
 tran: time= 8.0025E-09 tot_iter=     439 conv_iter=     185 cpu clock= 6.50E-01
 tran: time= 9.0162E-09 tot_iter=     493 conv_iter=     208 cpu clock= 6.50E-01
 tran: time= 1.0000E-08 tot_iter=     546 conv_iter=     230 cpu clock= 6.50E-01
 sweep: tran tran41   end,  cpu clock=  6.50E-01 peak memory=       184 mb
 data: data=mydata          r               =    1.00E+03
 dcop: begin dcop,  cpu clock=  6.50E-01
 dcop: end dcop,  cpu clock=  6.50E-01 peak memory=       184 mb  tot_iter=     168
 output: pi.mt0
 sweep: tran tran42   begin, stop_t=  1.00E-08 #sweeps=1001 cpu clock=  6.50E-01
 tran: time= 1.0077E-09 tot_iter=      65 conv_iter=      28 cpu clock= 6.60E-01
 tran: time= 2.0019E-09 tot_iter=     118 conv_iter=      50 cpu clock= 6.60E-01
 tran: time= 3.0166E-09 tot_iter=     172 conv_iter=      73 cpu clock= 6.60E-01
 tran: time= 4.0025E-09 tot_iter=     225 conv_iter=      95 cpu clock= 6.60E-01
 tran: time= 5.0161E-09 tot_iter=     279 conv_iter=     118 cpu clock= 6.60E-01
 tran: time= 6.0025E-09 tot_iter=     332 conv_iter=     140 cpu clock= 6.60E-01
 tran: time= 7.0162E-09 tot_iter=     386 conv_iter=     163 cpu clock= 6.60E-01
 tran: time= 8.0025E-09 tot_iter=     439 conv_iter=     185 cpu clock= 6.60E-01
 tran: time= 9.0162E-09 tot_iter=     493 conv_iter=     208 cpu clock= 6.60E-01
 tran: time= 1.0000E-08 tot_iter=     546 conv_iter=     230 cpu clock= 6.70E-01
 sweep: tran tran42   end,  cpu clock=  6.70E-01 peak memory=       184 mb
 data: data=mydata          r               =    1.00E+03
 dcop: begin dcop,  cpu clock=  6.70E-01
 dcop: end dcop,  cpu clock=  6.70E-01 peak memory=       184 mb  tot_iter=     172
 output: pi.mt0
 sweep: tran tran43   begin, stop_t=  1.00E-08 #sweeps=1001 cpu clock=  6.70E-01
 tran: time= 1.0612E-09 tot_iter=      66 conv_iter=      28 cpu clock= 6.70E-01
 tran: time= 2.1000E-09 tot_iter=     119 conv_iter=      50 cpu clock= 6.70E-01
 tran: time= 3.0308E-09 tot_iter=     173 conv_iter=      72 cpu clock= 6.70E-01
 tran: time= 4.1000E-09 tot_iter=     226 conv_iter=      94 cpu clock= 6.70E-01
 tran: time= 5.0350E-09 tot_iter=     280 conv_iter=     116 cpu clock= 6.70E-01
 tran: time= 6.1000E-09 tot_iter=     333 conv_iter=     138 cpu clock= 6.70E-01
 tran: time= 7.0344E-09 tot_iter=     387 conv_iter=     160 cpu clock= 6.80E-01
 tran: time= 8.1000E-09 tot_iter=     440 conv_iter=     182 cpu clock= 6.80E-01
 tran: time= 9.0345E-09 tot_iter=     494 conv_iter=     204 cpu clock= 6.80E-01
 tran: time= 1.0000E-08 tot_iter=     547 conv_iter=     226 cpu clock= 6.80E-01
 sweep: tran tran43   end,  cpu clock=  6.80E-01 peak memory=       184 mb
 data: data=mydata          r               =    1.00E+03
 dcop: begin dcop,  cpu clock=  6.80E-01
 dcop: end dcop,  cpu clock=  6.80E-01 peak memory=       184 mb  tot_iter=     176
 output: pi.mt0
 sweep: tran tran44   begin, stop_t=  1.00E-08 #sweeps=1001 cpu clock=  6.80E-01
 tran: time= 1.0612E-09 tot_iter=      66 conv_iter=      28 cpu clock= 6.80E-01
 tran: time= 2.1000E-09 tot_iter=     119 conv_iter=      50 cpu clock= 6.90E-01
 tran: time= 3.0308E-09 tot_iter=     173 conv_iter=      72 cpu clock= 6.90E-01
 tran: time= 4.1000E-09 tot_iter=     226 conv_iter=      94 cpu clock= 6.90E-01
 tran: time= 5.0350E-09 tot_iter=     280 conv_iter=     116 cpu clock= 6.90E-01
 tran: time= 6.1000E-09 tot_iter=     333 conv_iter=     138 cpu clock= 6.90E-01
 tran: time= 7.0344E-09 tot_iter=     387 conv_iter=     160 cpu clock= 6.90E-01
 tran: time= 8.1000E-09 tot_iter=     440 conv_iter=     182 cpu clock= 6.90E-01
 tran: time= 9.0345E-09 tot_iter=     494 conv_iter=     204 cpu clock= 6.90E-01
 tran: time= 1.0000E-08 tot_iter=     547 conv_iter=     226 cpu clock= 6.90E-01
 sweep: tran tran44   end,  cpu clock=  6.90E-01 peak memory=       178 mb
 data: data=mydata          r               =    1.00E+03
 dcop: begin dcop,  cpu clock=  6.90E-01
 dcop: end dcop,  cpu clock=  6.90E-01 peak memory=       178 mb  tot_iter=     180
 output: pi.mt0
 sweep: tran tran45   begin, stop_t=  1.00E-08 #sweeps=1001 cpu clock=  6.90E-01
 tran: time= 1.0612E-09 tot_iter=      66 conv_iter=      28 cpu clock= 6.90E-01
 tran: time= 2.1000E-09 tot_iter=     119 conv_iter=      50 cpu clock= 6.90E-01
 tran: time= 3.0308E-09 tot_iter=     173 conv_iter=      72 cpu clock= 6.90E-01
 tran: time= 4.1000E-09 tot_iter=     226 conv_iter=      94 cpu clock= 6.90E-01
 tran: time= 5.0350E-09 tot_iter=     280 conv_iter=     116 cpu clock= 6.90E-01
 tran: time= 6.1000E-09 tot_iter=     333 conv_iter=     138 cpu clock= 6.90E-01
 tran: time= 7.0344E-09 tot_iter=     387 conv_iter=     160 cpu clock= 6.90E-01
 tran: time= 8.1000E-09 tot_iter=     440 conv_iter=     182 cpu clock= 7.00E-01
 tran: time= 9.0345E-09 tot_iter=     494 conv_iter=     204 cpu clock= 7.00E-01
 tran: time= 1.0000E-08 tot_iter=     547 conv_iter=     226 cpu clock= 7.00E-01
 sweep: tran tran45   end,  cpu clock=  7.00E-01 peak memory=       178 mb
 data: data=mydata          r               =    1.00E+03
 dcop: begin dcop,  cpu clock=  7.00E-01
 dcop: end dcop,  cpu clock=  7.00E-01 peak memory=       178 mb  tot_iter=     184
 output: pi.mt0
 sweep: tran tran46   begin, stop_t=  1.00E-08 #sweeps=1001 cpu clock=  7.00E-01
 tran: time= 1.0612E-09 tot_iter=      66 conv_iter=      28 cpu clock= 7.00E-01
 tran: time= 2.1000E-09 tot_iter=     119 conv_iter=      50 cpu clock= 7.00E-01
 tran: time= 3.0308E-09 tot_iter=     173 conv_iter=      72 cpu clock= 7.00E-01
 tran: time= 4.1000E-09 tot_iter=     226 conv_iter=      94 cpu clock= 7.00E-01
 tran: time= 5.0350E-09 tot_iter=     280 conv_iter=     116 cpu clock= 7.00E-01
 tran: time= 6.1000E-09 tot_iter=     333 conv_iter=     138 cpu clock= 7.00E-01
 tran: time= 7.0344E-09 tot_iter=     387 conv_iter=     160 cpu clock= 7.00E-01
 tran: time= 8.1000E-09 tot_iter=     440 conv_iter=     182 cpu clock= 7.00E-01
 tran: time= 9.0345E-09 tot_iter=     494 conv_iter=     204 cpu clock= 7.00E-01
 tran: time= 1.0000E-08 tot_iter=     547 conv_iter=     226 cpu clock= 7.00E-01
 sweep: tran tran46   end,  cpu clock=  7.00E-01 peak memory=       178 mb
 data: data=mydata          r               =    1.00E+03
 dcop: begin dcop,  cpu clock=  7.00E-01
 dcop: end dcop,  cpu clock=  7.00E-01 peak memory=       178 mb  tot_iter=     188
 output: pi.mt0
 sweep: tran tran47   begin, stop_t=  1.00E-08 #sweeps=1001 cpu clock=  7.00E-01
 tran: time= 1.0612E-09 tot_iter=      66 conv_iter=      28 cpu clock= 7.00E-01
 tran: time= 2.1000E-09 tot_iter=     119 conv_iter=      50 cpu clock= 7.00E-01
 tran: time= 3.0308E-09 tot_iter=     173 conv_iter=      72 cpu clock= 7.00E-01
 tran: time= 4.1000E-09 tot_iter=     226 conv_iter=      94 cpu clock= 7.00E-01
 tran: time= 5.0350E-09 tot_iter=     280 conv_iter=     116 cpu clock= 7.00E-01
 tran: time= 6.1000E-09 tot_iter=     333 conv_iter=     138 cpu clock= 7.00E-01
 tran: time= 7.0344E-09 tot_iter=     387 conv_iter=     160 cpu clock= 7.00E-01
 tran: time= 8.1000E-09 tot_iter=     440 conv_iter=     182 cpu clock= 7.00E-01
 tran: time= 9.0345E-09 tot_iter=     494 conv_iter=     204 cpu clock= 7.00E-01
 tran: time= 1.0000E-08 tot_iter=     547 conv_iter=     226 cpu clock= 7.00E-01
 sweep: tran tran47   end,  cpu clock=  7.00E-01 peak memory=       178 mb
 data: data=mydata          r               =    1.00E+03
 dcop: begin dcop,  cpu clock=  7.00E-01
 dcop: end dcop,  cpu clock=  7.00E-01 peak memory=       178 mb  tot_iter=     192
 output: pi.mt0
 sweep: tran tran48   begin, stop_t=  1.00E-08 #sweeps=1001 cpu clock=  7.00E-01
 tran: time= 1.0612E-09 tot_iter=      66 conv_iter=      28 cpu clock= 7.00E-01
 tran: time= 2.1000E-09 tot_iter=     119 conv_iter=      50 cpu clock= 7.00E-01
 tran: time= 3.0308E-09 tot_iter=     173 conv_iter=      72 cpu clock= 7.00E-01
 tran: time= 4.1000E-09 tot_iter=     226 conv_iter=      94 cpu clock= 7.00E-01
 tran: time= 5.0350E-09 tot_iter=     280 conv_iter=     116 cpu clock= 7.10E-01
 tran: time= 6.1000E-09 tot_iter=     333 conv_iter=     138 cpu clock= 7.10E-01
 tran: time= 7.0344E-09 tot_iter=     387 conv_iter=     160 cpu clock= 7.10E-01
 tran: time= 8.1000E-09 tot_iter=     440 conv_iter=     182 cpu clock= 7.10E-01
 tran: time= 9.0345E-09 tot_iter=     494 conv_iter=     204 cpu clock= 7.10E-01
 tran: time= 1.0000E-08 tot_iter=     547 conv_iter=     226 cpu clock= 7.10E-01
 sweep: tran tran48   end,  cpu clock=  7.10E-01 peak memory=       178 mb
 data: data=mydata          r               =    1.00E+03
 dcop: begin dcop,  cpu clock=  7.10E-01
 dcop: end dcop,  cpu clock=  7.10E-01 peak memory=       178 mb  tot_iter=     196
 output: pi.mt0
 sweep: tran tran49   begin, stop_t=  1.00E-08 #sweeps=1001 cpu clock=  7.10E-01
 tran: time= 1.0571E-09 tot_iter=      66 conv_iter=      28 cpu clock= 7.10E-01
 tran: time= 2.0439E-09 tot_iter=     117 conv_iter=      49 cpu clock= 7.10E-01
 tran: time= 3.1100E-09 tot_iter=     172 conv_iter=      72 cpu clock= 7.10E-01
 tran: time= 4.0183E-09 tot_iter=     223 conv_iter=      92 cpu clock= 7.10E-01
 tran: time= 5.1100E-09 tot_iter=     278 conv_iter=     115 cpu clock= 7.10E-01
 tran: time= 6.1000E-09 tot_iter=     331 conv_iter=     136 cpu clock= 7.10E-01
 tran: time= 7.1100E-09 tot_iter=     384 conv_iter=     158 cpu clock= 7.10E-01
 tran: time= 8.1000E-09 tot_iter=     436 conv_iter=     179 cpu clock= 7.10E-01
 tran: time= 9.1100E-09 tot_iter=     489 conv_iter=     201 cpu clock= 7.10E-01
 tran: time= 1.0000E-08 tot_iter=     541 conv_iter=     222 cpu clock= 7.10E-01
 sweep: tran tran49   end,  cpu clock=  7.10E-01 peak memory=       178 mb
 data: data=mydata          r               =    1.00E+03
 dcop: begin dcop,  cpu clock=  7.10E-01
 dcop: end dcop,  cpu clock=  7.10E-01 peak memory=       178 mb  tot_iter=     200
 output: pi.mt0
 sweep: tran tran50   begin, stop_t=  1.00E-08 #sweeps=1001 cpu clock=  7.10E-01
 tran: time= 1.0571E-09 tot_iter=      66 conv_iter=      28 cpu clock= 7.10E-01
 tran: time= 2.0439E-09 tot_iter=     117 conv_iter=      49 cpu clock= 7.10E-01
 tran: time= 3.1100E-09 tot_iter=     172 conv_iter=      72 cpu clock= 7.10E-01
 tran: time= 4.0183E-09 tot_iter=     223 conv_iter=      92 cpu clock= 7.10E-01
 tran: time= 5.1100E-09 tot_iter=     278 conv_iter=     115 cpu clock= 7.10E-01
 tran: time= 6.1000E-09 tot_iter=     331 conv_iter=     136 cpu clock= 7.10E-01
 tran: time= 7.1100E-09 tot_iter=     384 conv_iter=     158 cpu clock= 7.10E-01
 tran: time= 8.1000E-09 tot_iter=     436 conv_iter=     179 cpu clock= 7.10E-01
 tran: time= 9.1100E-09 tot_iter=     489 conv_iter=     201 cpu clock= 7.10E-01
 tran: time= 1.0000E-08 tot_iter=     541 conv_iter=     222 cpu clock= 7.10E-01
 sweep: tran tran50   end,  cpu clock=  7.10E-01 peak memory=       178 mb
 data: data=mydata          r               =    1.00E+03
 dcop: begin dcop,  cpu clock=  7.10E-01
 dcop: end dcop,  cpu clock=  7.10E-01 peak memory=       178 mb  tot_iter=     204
 output: pi.mt0
 sweep: tran tran51   begin, stop_t=  1.00E-08 #sweeps=1001 cpu clock=  7.10E-01
 tran: time= 1.0571E-09 tot_iter=      66 conv_iter=      28 cpu clock= 7.10E-01
 tran: time= 2.0439E-09 tot_iter=     117 conv_iter=      49 cpu clock= 7.10E-01
 tran: time= 3.1100E-09 tot_iter=     172 conv_iter=      72 cpu clock= 7.10E-01
 tran: time= 4.0183E-09 tot_iter=     223 conv_iter=      92 cpu clock= 7.10E-01
 tran: time= 5.1100E-09 tot_iter=     278 conv_iter=     115 cpu clock= 7.20E-01
 tran: time= 6.1000E-09 tot_iter=     331 conv_iter=     136 cpu clock= 7.20E-01
 tran: time= 7.1100E-09 tot_iter=     384 conv_iter=     158 cpu clock= 7.20E-01
 tran: time= 8.1000E-09 tot_iter=     436 conv_iter=     179 cpu clock= 7.20E-01
 tran: time= 9.1100E-09 tot_iter=     489 conv_iter=     201 cpu clock= 7.20E-01
 tran: time= 1.0000E-08 tot_iter=     541 conv_iter=     222 cpu clock= 7.20E-01
 sweep: tran tran51   end,  cpu clock=  7.20E-01 peak memory=       178 mb
 data: data=mydata          r               =    1.00E+03
 dcop: begin dcop,  cpu clock=  7.20E-01
 dcop: end dcop,  cpu clock=  7.20E-01 peak memory=       178 mb  tot_iter=     208
 output: pi.mt0
 sweep: tran tran52   begin, stop_t=  1.00E-08 #sweeps=1001 cpu clock=  7.20E-01
 tran: time= 1.0571E-09 tot_iter=      66 conv_iter=      28 cpu clock= 7.20E-01
 tran: time= 2.0439E-09 tot_iter=     117 conv_iter=      49 cpu clock= 7.20E-01
 tran: time= 3.1100E-09 tot_iter=     172 conv_iter=      72 cpu clock= 7.20E-01
 tran: time= 4.0183E-09 tot_iter=     223 conv_iter=      92 cpu clock= 7.20E-01
 tran: time= 5.1100E-09 tot_iter=     278 conv_iter=     115 cpu clock= 7.20E-01
 tran: time= 6.1000E-09 tot_iter=     331 conv_iter=     136 cpu clock= 7.20E-01
 tran: time= 7.1100E-09 tot_iter=     384 conv_iter=     158 cpu clock= 7.20E-01
 tran: time= 8.1000E-09 tot_iter=     436 conv_iter=     179 cpu clock= 7.20E-01
 tran: time= 9.1100E-09 tot_iter=     489 conv_iter=     201 cpu clock= 7.20E-01
 tran: time= 1.0000E-08 tot_iter=     541 conv_iter=     222 cpu clock= 7.20E-01
 sweep: tran tran52   end,  cpu clock=  7.20E-01 peak memory=       178 mb
 data: data=mydata          r               =    1.00E+03
 dcop: begin dcop,  cpu clock=  7.20E-01
 dcop: end dcop,  cpu clock=  7.20E-01 peak memory=       178 mb  tot_iter=     212
 output: pi.mt0
 sweep: tran tran53   begin, stop_t=  1.00E-08 #sweeps=1001 cpu clock=  7.20E-01
 tran: time= 1.0571E-09 tot_iter=      66 conv_iter=      28 cpu clock= 7.20E-01
 tran: time= 2.0439E-09 tot_iter=     117 conv_iter=      49 cpu clock= 7.20E-01
 tran: time= 3.1100E-09 tot_iter=     172 conv_iter=      72 cpu clock= 7.20E-01
 tran: time= 4.0183E-09 tot_iter=     223 conv_iter=      92 cpu clock= 7.20E-01
 tran: time= 5.1100E-09 tot_iter=     278 conv_iter=     115 cpu clock= 7.20E-01
 tran: time= 6.1000E-09 tot_iter=     331 conv_iter=     136 cpu clock= 7.20E-01
 tran: time= 7.1100E-09 tot_iter=     384 conv_iter=     158 cpu clock= 7.20E-01
 tran: time= 8.1000E-09 tot_iter=     436 conv_iter=     179 cpu clock= 7.30E-01
 tran: time= 9.1100E-09 tot_iter=     489 conv_iter=     201 cpu clock= 7.30E-01
 tran: time= 1.0000E-08 tot_iter=     541 conv_iter=     222 cpu clock= 7.30E-01
 sweep: tran tran53   end,  cpu clock=  7.30E-01 peak memory=       178 mb
 data: data=mydata          r               =    1.00E+03
 dcop: begin dcop,  cpu clock=  7.30E-01
 dcop: end dcop,  cpu clock=  7.30E-01 peak memory=       178 mb  tot_iter=     216
 output: pi.mt0
 sweep: tran tran54   begin, stop_t=  1.00E-08 #sweeps=1001 cpu clock=  7.30E-01
 tran: time= 1.0571E-09 tot_iter=      66 conv_iter=      28 cpu clock= 7.30E-01
 tran: time= 2.0439E-09 tot_iter=     117 conv_iter=      49 cpu clock= 7.30E-01
 tran: time= 3.1100E-09 tot_iter=     172 conv_iter=      72 cpu clock= 7.30E-01
 tran: time= 4.0183E-09 tot_iter=     223 conv_iter=      92 cpu clock= 7.30E-01
 tran: time= 5.1100E-09 tot_iter=     278 conv_iter=     115 cpu clock= 7.30E-01
 tran: time= 6.1000E-09 tot_iter=     331 conv_iter=     136 cpu clock= 7.30E-01
 tran: time= 7.1100E-09 tot_iter=     384 conv_iter=     158 cpu clock= 7.30E-01
 tran: time= 8.1000E-09 tot_iter=     436 conv_iter=     179 cpu clock= 7.30E-01
 tran: time= 9.1100E-09 tot_iter=     489 conv_iter=     201 cpu clock= 7.30E-01
 tran: time= 1.0000E-08 tot_iter=     541 conv_iter=     222 cpu clock= 7.30E-01
 sweep: tran tran54   end,  cpu clock=  7.30E-01 peak memory=       178 mb
 data: data=mydata          r               =    1.00E+03
 dcop: begin dcop,  cpu clock=  7.30E-01
 dcop: end dcop,  cpu clock=  7.30E-01 peak memory=       178 mb  tot_iter=     220
 output: pi.mt0
 sweep: tran tran55   begin, stop_t=  1.00E-08 #sweeps=1001 cpu clock=  7.30E-01
 tran: time= 1.1100E-09 tot_iter=      66 conv_iter=      28 cpu clock= 7.30E-01
 tran: time= 2.1000E-09 tot_iter=     117 conv_iter=      48 cpu clock= 7.30E-01
 tran: time= 3.0902E-09 tot_iter=     168 conv_iter=      69 cpu clock= 7.30E-01
 tran: time= 4.1000E-09 tot_iter=     224 conv_iter=      92 cpu clock= 7.30E-01
 tran: time= 5.0547E-09 tot_iter=     275 conv_iter=     113 cpu clock= 7.30E-01
 tran: time= 6.1000E-09 tot_iter=     327 conv_iter=     134 cpu clock= 7.30E-01
 tran: time= 7.0432E-09 tot_iter=     378 conv_iter=     155 cpu clock= 7.30E-01
 tran: time= 8.1000E-09 tot_iter=     430 conv_iter=     176 cpu clock= 7.40E-01
 tran: time= 9.0444E-09 tot_iter=     481 conv_iter=     197 cpu clock= 7.40E-01
 tran: time= 1.0000E-08 tot_iter=     530 conv_iter=     217 cpu clock= 7.40E-01
 sweep: tran tran55   end,  cpu clock=  7.40E-01 peak memory=       178 mb
 data: data=mydata          r               =    1.00E+03
 dcop: begin dcop,  cpu clock=  7.40E-01
 dcop: end dcop,  cpu clock=  7.40E-01 peak memory=       178 mb  tot_iter=     224
 output: pi.mt0
 sweep: tran tran56   begin, stop_t=  1.00E-08 #sweeps=1001 cpu clock=  7.40E-01
 tran: time= 1.1100E-09 tot_iter=      66 conv_iter=      28 cpu clock= 7.40E-01
 tran: time= 2.1000E-09 tot_iter=     117 conv_iter=      48 cpu clock= 7.40E-01
 tran: time= 3.0902E-09 tot_iter=     168 conv_iter=      69 cpu clock= 7.40E-01
 tran: time= 4.1000E-09 tot_iter=     224 conv_iter=      92 cpu clock= 7.40E-01
 tran: time= 5.0547E-09 tot_iter=     275 conv_iter=     113 cpu clock= 7.40E-01
 tran: time= 6.1000E-09 tot_iter=     327 conv_iter=     134 cpu clock= 7.40E-01
 tran: time= 7.0432E-09 tot_iter=     378 conv_iter=     155 cpu clock= 7.40E-01
 tran: time= 8.1000E-09 tot_iter=     430 conv_iter=     176 cpu clock= 7.40E-01
 tran: time= 9.0444E-09 tot_iter=     481 conv_iter=     197 cpu clock= 7.40E-01
 tran: time= 1.0000E-08 tot_iter=     530 conv_iter=     217 cpu clock= 7.40E-01
 sweep: tran tran56   end,  cpu clock=  7.40E-01 peak memory=       178 mb
 data: data=mydata          r               =    1.00E+03
 dcop: begin dcop,  cpu clock=  7.40E-01
 dcop: end dcop,  cpu clock=  7.40E-01 peak memory=       178 mb  tot_iter=     228
 output: pi.mt0
 sweep: tran tran57   begin, stop_t=  1.00E-08 #sweeps=1001 cpu clock=  7.40E-01
 tran: time= 1.1100E-09 tot_iter=      66 conv_iter=      28 cpu clock= 7.40E-01
 tran: time= 2.1000E-09 tot_iter=     117 conv_iter=      48 cpu clock= 7.40E-01
 tran: time= 3.0902E-09 tot_iter=     168 conv_iter=      69 cpu clock= 7.40E-01
 tran: time= 4.1000E-09 tot_iter=     224 conv_iter=      92 cpu clock= 7.40E-01
 tran: time= 5.0547E-09 tot_iter=     275 conv_iter=     113 cpu clock= 7.40E-01
 tran: time= 6.1000E-09 tot_iter=     327 conv_iter=     134 cpu clock= 7.40E-01
 tran: time= 7.0432E-09 tot_iter=     378 conv_iter=     155 cpu clock= 7.40E-01
 tran: time= 8.1000E-09 tot_iter=     430 conv_iter=     176 cpu clock= 7.40E-01
 tran: time= 9.0444E-09 tot_iter=     481 conv_iter=     197 cpu clock= 7.40E-01
 tran: time= 1.0000E-08 tot_iter=     530 conv_iter=     217 cpu clock= 7.40E-01
 sweep: tran tran57   end,  cpu clock=  7.40E-01 peak memory=       178 mb
 data: data=mydata          r               =    1.00E+03
 dcop: begin dcop,  cpu clock=  7.40E-01
 dcop: end dcop,  cpu clock=  7.40E-01 peak memory=       178 mb  tot_iter=     232
 output: pi.mt0
 sweep: tran tran58   begin, stop_t=  1.00E-08 #sweeps=1001 cpu clock=  7.40E-01
 tran: time= 1.1100E-09 tot_iter=      66 conv_iter=      28 cpu clock= 7.50E-01
 tran: time= 2.1000E-09 tot_iter=     117 conv_iter=      48 cpu clock= 7.50E-01
 tran: time= 3.0902E-09 tot_iter=     168 conv_iter=      69 cpu clock= 7.50E-01
 tran: time= 4.1000E-09 tot_iter=     224 conv_iter=      92 cpu clock= 7.50E-01
 tran: time= 5.0547E-09 tot_iter=     275 conv_iter=     113 cpu clock= 7.50E-01
 tran: time= 6.1000E-09 tot_iter=     327 conv_iter=     134 cpu clock= 7.50E-01
 tran: time= 7.0432E-09 tot_iter=     378 conv_iter=     155 cpu clock= 7.50E-01
 tran: time= 8.1000E-09 tot_iter=     430 conv_iter=     176 cpu clock= 7.50E-01
 tran: time= 9.0444E-09 tot_iter=     481 conv_iter=     197 cpu clock= 7.50E-01
 tran: time= 1.0000E-08 tot_iter=     530 conv_iter=     217 cpu clock= 7.50E-01
 sweep: tran tran58   end,  cpu clock=  7.50E-01 peak memory=       178 mb
 data: data=mydata          r               =    1.00E+03
 dcop: begin dcop,  cpu clock=  7.50E-01
 dcop: end dcop,  cpu clock=  7.50E-01 peak memory=       178 mb  tot_iter=     236
 output: pi.mt0
 sweep: tran tran59   begin, stop_t=  1.00E-08 #sweeps=1001 cpu clock=  7.50E-01
 tran: time= 1.1100E-09 tot_iter=      66 conv_iter=      28 cpu clock= 7.50E-01
 tran: time= 2.1000E-09 tot_iter=     117 conv_iter=      48 cpu clock= 7.50E-01
 tran: time= 3.0902E-09 tot_iter=     168 conv_iter=      69 cpu clock= 7.50E-01
 tran: time= 4.1000E-09 tot_iter=     224 conv_iter=      92 cpu clock= 7.50E-01
 tran: time= 5.0547E-09 tot_iter=     275 conv_iter=     113 cpu clock= 7.50E-01
 tran: time= 6.1000E-09 tot_iter=     327 conv_iter=     134 cpu clock= 7.50E-01
 tran: time= 7.0432E-09 tot_iter=     378 conv_iter=     155 cpu clock= 7.50E-01
 tran: time= 8.1000E-09 tot_iter=     430 conv_iter=     176 cpu clock= 7.50E-01
 tran: time= 9.0444E-09 tot_iter=     481 conv_iter=     197 cpu clock= 7.50E-01
 tran: time= 1.0000E-08 tot_iter=     530 conv_iter=     217 cpu clock= 7.50E-01
 sweep: tran tran59   end,  cpu clock=  7.50E-01 peak memory=       178 mb
 data: data=mydata          r               =    1.00E+03
 dcop: begin dcop,  cpu clock=  7.50E-01
 dcop: end dcop,  cpu clock=  7.50E-01 peak memory=       178 mb  tot_iter=     240
 output: pi.mt0
 sweep: tran tran60   begin, stop_t=  1.00E-08 #sweeps=1001 cpu clock=  7.50E-01
 tran: time= 1.1100E-09 tot_iter=      66 conv_iter=      28 cpu clock= 7.50E-01
 tran: time= 2.1000E-09 tot_iter=     117 conv_iter=      48 cpu clock= 7.50E-01
 tran: time= 3.0902E-09 tot_iter=     168 conv_iter=      69 cpu clock= 7.50E-01
 tran: time= 4.1000E-09 tot_iter=     224 conv_iter=      92 cpu clock= 7.50E-01
 tran: time= 5.0547E-09 tot_iter=     275 conv_iter=     113 cpu clock= 7.50E-01
 tran: time= 6.1000E-09 tot_iter=     327 conv_iter=     134 cpu clock= 7.50E-01
 tran: time= 7.0432E-09 tot_iter=     378 conv_iter=     155 cpu clock= 7.50E-01
 tran: time= 8.1000E-09 tot_iter=     430 conv_iter=     176 cpu clock= 7.60E-01
 tran: time= 9.0444E-09 tot_iter=     481 conv_iter=     197 cpu clock= 7.60E-01
 tran: time= 1.0000E-08 tot_iter=     530 conv_iter=     217 cpu clock= 7.60E-01
 sweep: tran tran60   end,  cpu clock=  7.60E-01 peak memory=       178 mb
 data: data=mydata          r               =    1.00E+03
 dcop: begin dcop,  cpu clock=  7.60E-01
 dcop: end dcop,  cpu clock=  7.60E-01 peak memory=       178 mb  tot_iter=     244
 output: pi.mt0
 sweep: tran tran61   begin, stop_t=  1.00E-08 #sweeps=1001 cpu clock=  7.60E-01
 tran: time= 1.0321E-09 tot_iter=      64 conv_iter=      27 cpu clock= 7.60E-01
 tran: time= 2.0558E-09 tot_iter=     114 conv_iter=      47 cpu clock= 7.60E-01
 tran: time= 3.1100E-09 tot_iter=     168 conv_iter=      69 cpu clock= 7.60E-01
 tran: time= 4.1000E-09 tot_iter=     219 conv_iter=      89 cpu clock= 7.60E-01
 tran: time= 5.0839E-09 tot_iter=     270 conv_iter=     110 cpu clock= 7.60E-01
 tran: time= 6.1000E-09 tot_iter=     324 conv_iter=     132 cpu clock= 7.60E-01
 tran: time= 7.0731E-09 tot_iter=     376 conv_iter=     153 cpu clock= 7.60E-01
 tran: time= 8.1000E-09 tot_iter=     430 conv_iter=     175 cpu clock= 7.60E-01
 tran: time= 9.0671E-09 tot_iter=     482 conv_iter=     196 cpu clock= 7.60E-01
 tran: time= 1.0000E-08 tot_iter=     532 conv_iter=     216 cpu clock= 7.60E-01
 sweep: tran tran61   end,  cpu clock=  7.60E-01 peak memory=       178 mb
 data: data=mydata          r               =    1.00E+03
 dcop: begin dcop,  cpu clock=  7.60E-01
 dcop: end dcop,  cpu clock=  7.60E-01 peak memory=       178 mb  tot_iter=     248
 output: pi.mt0
 sweep: tran tran62   begin, stop_t=  1.00E-08 #sweeps=1001 cpu clock=  7.60E-01
 tran: time= 1.0321E-09 tot_iter=      64 conv_iter=      27 cpu clock= 7.60E-01
 tran: time= 2.0558E-09 tot_iter=     114 conv_iter=      47 cpu clock= 7.60E-01
 tran: time= 3.1100E-09 tot_iter=     168 conv_iter=      69 cpu clock= 7.60E-01
 tran: time= 4.1000E-09 tot_iter=     219 conv_iter=      89 cpu clock= 7.60E-01
 tran: time= 5.0839E-09 tot_iter=     270 conv_iter=     110 cpu clock= 7.60E-01
 tran: time= 6.1000E-09 tot_iter=     324 conv_iter=     132 cpu clock= 7.60E-01
 tran: time= 7.0731E-09 tot_iter=     376 conv_iter=     153 cpu clock= 7.60E-01
 tran: time= 8.1000E-09 tot_iter=     430 conv_iter=     175 cpu clock= 7.60E-01
 tran: time= 9.0671E-09 tot_iter=     482 conv_iter=     196 cpu clock= 7.60E-01
 tran: time= 1.0000E-08 tot_iter=     532 conv_iter=     216 cpu clock= 7.60E-01
 sweep: tran tran62   end,  cpu clock=  7.60E-01 peak memory=       178 mb
 data: data=mydata          r               =    1.00E+03
 dcop: begin dcop,  cpu clock=  7.60E-01
 dcop: end dcop,  cpu clock=  7.60E-01 peak memory=       178 mb  tot_iter=     252
 output: pi.mt0
 sweep: tran tran63   begin, stop_t=  1.00E-08 #sweeps=1001 cpu clock=  7.60E-01
 tran: time= 1.0321E-09 tot_iter=      64 conv_iter=      27 cpu clock= 7.60E-01
 tran: time= 2.0558E-09 tot_iter=     114 conv_iter=      47 cpu clock= 7.60E-01
 tran: time= 3.1100E-09 tot_iter=     168 conv_iter=      69 cpu clock= 7.60E-01
 tran: time= 4.1000E-09 tot_iter=     219 conv_iter=      89 cpu clock= 7.60E-01
 tran: time= 5.0839E-09 tot_iter=     270 conv_iter=     110 cpu clock= 7.60E-01
 tran: time= 6.1000E-09 tot_iter=     324 conv_iter=     132 cpu clock= 7.60E-01
 tran: time= 7.0731E-09 tot_iter=     376 conv_iter=     153 cpu clock= 7.60E-01
 tran: time= 8.1000E-09 tot_iter=     430 conv_iter=     175 cpu clock= 7.60E-01
 tran: time= 9.0671E-09 tot_iter=     482 conv_iter=     196 cpu clock= 7.60E-01
 tran: time= 1.0000E-08 tot_iter=     532 conv_iter=     216 cpu clock= 7.70E-01
 sweep: tran tran63   end,  cpu clock=  7.70E-01 peak memory=       178 mb
 data: data=mydata          r               =    1.00E+03
 dcop: begin dcop,  cpu clock=  7.70E-01
 dcop: end dcop,  cpu clock=  7.70E-01 peak memory=       178 mb  tot_iter=     256
 output: pi.mt0
 sweep: tran tran64   begin, stop_t=  1.00E-08 #sweeps=1001 cpu clock=  7.70E-01
 tran: time= 1.0321E-09 tot_iter=      64 conv_iter=      27 cpu clock= 7.70E-01
 tran: time= 2.0558E-09 tot_iter=     114 conv_iter=      47 cpu clock= 7.70E-01
 tran: time= 3.1100E-09 tot_iter=     168 conv_iter=      69 cpu clock= 7.70E-01
 tran: time= 4.1000E-09 tot_iter=     219 conv_iter=      89 cpu clock= 7.70E-01
 tran: time= 5.0839E-09 tot_iter=     270 conv_iter=     110 cpu clock= 7.70E-01
 tran: time= 6.1000E-09 tot_iter=     324 conv_iter=     132 cpu clock= 7.70E-01
 tran: time= 7.0731E-09 tot_iter=     376 conv_iter=     153 cpu clock= 7.70E-01
 tran: time= 8.1000E-09 tot_iter=     430 conv_iter=     175 cpu clock= 7.70E-01
 tran: time= 9.0671E-09 tot_iter=     482 conv_iter=     196 cpu clock= 7.70E-01
 tran: time= 1.0000E-08 tot_iter=     532 conv_iter=     216 cpu clock= 7.70E-01
 sweep: tran tran64   end,  cpu clock=  7.70E-01 peak memory=       178 mb
 data: data=mydata          r               =    1.00E+03
 dcop: begin dcop,  cpu clock=  7.70E-01
 dcop: end dcop,  cpu clock=  7.70E-01 peak memory=       178 mb  tot_iter=     260
 output: pi.mt0
 sweep: tran tran65   begin, stop_t=  1.00E-08 #sweeps=1001 cpu clock=  7.70E-01
 tran: time= 1.0321E-09 tot_iter=      64 conv_iter=      27 cpu clock= 7.70E-01
 tran: time= 2.0558E-09 tot_iter=     114 conv_iter=      47 cpu clock= 7.70E-01
 tran: time= 3.1100E-09 tot_iter=     168 conv_iter=      69 cpu clock= 7.70E-01
 tran: time= 4.1000E-09 tot_iter=     219 conv_iter=      89 cpu clock= 7.70E-01
 tran: time= 5.0839E-09 tot_iter=     270 conv_iter=     110 cpu clock= 7.70E-01
 tran: time= 6.1000E-09 tot_iter=     324 conv_iter=     132 cpu clock= 7.70E-01
 tran: time= 7.0731E-09 tot_iter=     376 conv_iter=     153 cpu clock= 7.70E-01
 tran: time= 8.1000E-09 tot_iter=     430 conv_iter=     175 cpu clock= 7.70E-01
 tran: time= 9.0671E-09 tot_iter=     482 conv_iter=     196 cpu clock= 7.70E-01
 tran: time= 1.0000E-08 tot_iter=     532 conv_iter=     216 cpu clock= 7.70E-01
 sweep: tran tran65   end,  cpu clock=  7.70E-01 peak memory=       178 mb
 data: data=mydata          r               =    1.00E+03
 dcop: begin dcop,  cpu clock=  7.70E-01
 dcop: end dcop,  cpu clock=  7.70E-01 peak memory=       178 mb  tot_iter=     264
 output: pi.mt0
 sweep: tran tran66   begin, stop_t=  1.00E-08 #sweeps=1001 cpu clock=  7.70E-01
 tran: time= 1.0321E-09 tot_iter=      64 conv_iter=      27 cpu clock= 7.70E-01
 tran: time= 2.0558E-09 tot_iter=     114 conv_iter=      47 cpu clock= 7.70E-01
 tran: time= 3.1100E-09 tot_iter=     168 conv_iter=      69 cpu clock= 7.70E-01
 tran: time= 4.1000E-09 tot_iter=     219 conv_iter=      89 cpu clock= 7.70E-01
 tran: time= 5.0839E-09 tot_iter=     270 conv_iter=     110 cpu clock= 7.80E-01
 tran: time= 6.1000E-09 tot_iter=     324 conv_iter=     132 cpu clock= 7.80E-01
 tran: time= 7.0731E-09 tot_iter=     376 conv_iter=     153 cpu clock= 7.80E-01
 tran: time= 8.1000E-09 tot_iter=     430 conv_iter=     175 cpu clock= 7.80E-01
 tran: time= 9.0671E-09 tot_iter=     482 conv_iter=     196 cpu clock= 7.80E-01
 tran: time= 1.0000E-08 tot_iter=     532 conv_iter=     216 cpu clock= 7.80E-01
 sweep: tran tran66   end,  cpu clock=  7.80E-01 peak memory=       178 mb
 data: data=mydata          r               =    2.00E+03
 dcop: begin dcop,  cpu clock=  7.80E-01
 dcop: end dcop,  cpu clock=  7.80E-01 peak memory=       178 mb  tot_iter=     268
 output: pi.mt0
 sweep: tran tran67   begin, stop_t=  1.00E-08 #sweeps=1001 cpu clock=  7.80E-01
 tran: time= 1.1100E-09 tot_iter=      70 conv_iter=      28 cpu clock= 7.80E-01
 tran: time= 2.0702E-09 tot_iter=     128 conv_iter=      52 cpu clock= 7.80E-01
 tran: time= 3.1100E-09 tot_iter=     193 conv_iter=      78 cpu clock= 7.80E-01
 tran: time= 4.1000E-09 tot_iter=     249 conv_iter=     101 cpu clock= 7.80E-01
 tran: time= 5.0002E-09 tot_iter=     305 conv_iter=     123 cpu clock= 7.80E-01
 tran: time= 6.1000E-09 tot_iter=     364 conv_iter=     147 cpu clock= 7.80E-01
 tran: time= 7.1100E-09 tot_iter=     420 conv_iter=     169 cpu clock= 7.80E-01
 tran: time= 8.0488E-09 tot_iter=     478 conv_iter=     193 cpu clock= 7.80E-01
 tran: time= 9.1100E-09 tot_iter=     538 conv_iter=     217 cpu clock= 7.80E-01
 tran: time= 1.0000E-08 tot_iter=     594 conv_iter=     240 cpu clock= 7.80E-01
 sweep: tran tran67   end,  cpu clock=  7.80E-01 peak memory=       178 mb
 data: data=mydata          r               =    2.00E+03
 dcop: begin dcop,  cpu clock=  7.80E-01
 dcop: end dcop,  cpu clock=  7.80E-01 peak memory=       178 mb  tot_iter=     272
 output: pi.mt0
 sweep: tran tran68   begin, stop_t=  1.00E-08 #sweeps=1001 cpu clock=  7.80E-01
 tran: time= 1.1100E-09 tot_iter=      70 conv_iter=      28 cpu clock= 7.80E-01
 tran: time= 2.0702E-09 tot_iter=     128 conv_iter=      52 cpu clock= 7.80E-01
 tran: time= 3.1100E-09 tot_iter=     193 conv_iter=      78 cpu clock= 7.80E-01
 tran: time= 4.1000E-09 tot_iter=     249 conv_iter=     101 cpu clock= 7.80E-01
[...]
 sweep: tran tran643  end,  cpu clock=  3.73E+00 peak memory=       178 mb
 data: data=mydata          r               =    1.00E+04
 dcop: begin dcop,  cpu clock=  3.73E+00
 dcop: end dcop,  cpu clock=  3.73E+00 peak memory=       178 mb  tot_iter=    2576
 output: pi.mt0
 sweep: tran tran644  begin, stop_t=  1.00E-08 #sweeps=1001 cpu clock=  3.73E+00
 tran: time= 1.1100E-09 tot_iter=      69 conv_iter=      28 cpu clock= 3.73E+00
 tran: time= 2.1000E-09 tot_iter=     123 conv_iter=      49 cpu clock= 3.73E+00
 tran: time= 3.1100E-09 tot_iter=     179 conv_iter=      71 cpu clock= 3.73E+00
 tran: time= 4.1000E-09 tot_iter=     233 conv_iter=      92 cpu clock= 3.73E+00
 tran: time= 5.1100E-09 tot_iter=     289 conv_iter=     114 cpu clock= 3.73E+00
 tran: time= 6.1000E-09 tot_iter=     343 conv_iter=     135 cpu clock= 3.73E+00
 tran: time= 7.1100E-09 tot_iter=     399 conv_iter=     157 cpu clock= 3.73E+00
 tran: time= 8.1000E-09 tot_iter=     453 conv_iter=     178 cpu clock= 3.73E+00
 tran: time= 9.1100E-09 tot_iter=     509 conv_iter=     200 cpu clock= 3.73E+00
 tran: time= 1.0000E-08 tot_iter=     563 conv_iter=     221 cpu clock= 3.73E+00
 sweep: tran tran644  end,  cpu clock=  3.73E+00 peak memory=       178 mb
 data: data=mydata          r               =    1.00E+04
 dcop: begin dcop,  cpu clock=  3.73E+00
 dcop: end dcop,  cpu clock=  3.73E+00 peak memory=       178 mb  tot_iter=    2580
 output: pi.mt0
 sweep: tran tran645  begin, stop_t=  1.00E-08 #sweeps=1001 cpu clock=  3.73E+00
 tran: time= 1.1100E-09 tot_iter=      69 conv_iter=      28 cpu clock= 3.73E+00
 tran: time= 2.1000E-09 tot_iter=     123 conv_iter=      49 cpu clock= 3.73E+00
 tran: time= 3.1100E-09 tot_iter=     179 conv_iter=      71 cpu clock= 3.73E+00
 tran: time= 4.1000E-09 tot_iter=     233 conv_iter=      92 cpu clock= 3.73E+00
 tran: time= 5.1100E-09 tot_iter=     289 conv_iter=     114 cpu clock= 3.74E+00
 tran: time= 6.1000E-09 tot_iter=     343 conv_iter=     135 cpu clock= 3.74E+00
 tran: time= 7.1100E-09 tot_iter=     399 conv_iter=     157 cpu clock= 3.74E+00
 tran: time= 8.1000E-09 tot_iter=     453 conv_iter=     178 cpu clock= 3.74E+00
 tran: time= 9.1100E-09 tot_iter=     509 conv_iter=     200 cpu clock= 3.74E+00
 tran: time= 1.0000E-08 tot_iter=     563 conv_iter=     221 cpu clock= 3.74E+00
 sweep: tran tran645  end,  cpu clock=  3.74E+00 peak memory=       178 mb
 data: data=mydata          r               =    1.00E+04
 dcop: begin dcop,  cpu clock=  3.74E+00
 dcop: end dcop,  cpu clock=  3.74E+00 peak memory=       178 mb  tot_iter=    2584
 output: pi.mt0
 sweep: tran tran646  begin, stop_t=  1.00E-08 #sweeps=1001 cpu clock=  3.74E+00
 tran: time= 1.1100E-09 tot_iter=      69 conv_iter=      28 cpu clock= 3.74E+00
 tran: time= 2.1000E-09 tot_iter=     123 conv_iter=      49 cpu clock= 3.74E+00
 tran: time= 3.1100E-09 tot_iter=     179 conv_iter=      71 cpu clock= 3.74E+00
 tran: time= 4.1000E-09 tot_iter=     233 conv_iter=      92 cpu clock= 3.74E+00
 tran: time= 5.1100E-09 tot_iter=     289 conv_iter=     114 cpu clock= 3.74E+00
 tran: time= 6.1000E-09 tot_iter=     343 conv_iter=     135 cpu clock= 3.74E+00
 tran: time= 7.1100E-09 tot_iter=     399 conv_iter=     157 cpu clock= 3.74E+00
 tran: time= 8.1000E-09 tot_iter=     453 conv_iter=     178 cpu clock= 3.74E+00
 tran: time= 9.1100E-09 tot_iter=     509 conv_iter=     200 cpu clock= 3.74E+00
 tran: time= 1.0000E-08 tot_iter=     563 conv_iter=     221 cpu clock= 3.74E+00
 sweep: tran tran646  end,  cpu clock=  3.74E+00 peak memory=       178 mb
 data: data=mydata          r               =    1.00E+04
 dcop: begin dcop,  cpu clock=  3.74E+00
 dcop: end dcop,  cpu clock=  3.74E+00 peak memory=       178 mb  tot_iter=    2588
 output: pi.mt0
 sweep: tran tran647  begin, stop_t=  1.00E-08 #sweeps=1001 cpu clock=  3.74E+00
 tran: time= 1.1100E-09 tot_iter=      69 conv_iter=      28 cpu clock= 3.74E+00
 tran: time= 2.1000E-09 tot_iter=     123 conv_iter=      49 cpu clock= 3.74E+00
 tran: time= 3.1100E-09 tot_iter=     179 conv_iter=      71 cpu clock= 3.74E+00
 tran: time= 4.1000E-09 tot_iter=     233 conv_iter=      92 cpu clock= 3.74E+00
 tran: time= 5.1100E-09 tot_iter=     289 conv_iter=     114 cpu clock= 3.74E+00
 tran: time= 6.1000E-09 tot_iter=     343 conv_iter=     135 cpu clock= 3.74E+00
 tran: time= 7.1100E-09 tot_iter=     399 conv_iter=     157 cpu clock= 3.74E+00
 tran: time= 8.1000E-09 tot_iter=     453 conv_iter=     178 cpu clock= 3.74E+00
 tran: time= 9.1100E-09 tot_iter=     509 conv_iter=     200 cpu clock= 3.74E+00
 tran: time= 1.0000E-08 tot_iter=     563 conv_iter=     221 cpu clock= 3.74E+00
 sweep: tran tran647  end,  cpu clock=  3.74E+00 peak memory=       178 mb
 data: data=mydata          r               =    1.00E+04
 dcop: begin dcop,  cpu clock=  3.74E+00
 dcop: end dcop,  cpu clock=  3.74E+00 peak memory=       178 mb  tot_iter=    2592
 output: pi.mt0
 sweep: tran tran648  begin, stop_t=  1.00E-08 #sweeps=1001 cpu clock=  3.74E+00
 tran: time= 1.1100E-09 tot_iter=      69 conv_iter=      28 cpu clock= 3.74E+00
 tran: time= 2.1000E-09 tot_iter=     123 conv_iter=      49 cpu clock= 3.74E+00
 tran: time= 3.1100E-09 tot_iter=     179 conv_iter=      71 cpu clock= 3.75E+00
 tran: time= 4.1000E-09 tot_iter=     233 conv_iter=      92 cpu clock= 3.75E+00
 tran: time= 5.1100E-09 tot_iter=     289 conv_iter=     114 cpu clock= 3.75E+00
 tran: time= 6.1000E-09 tot_iter=     343 conv_iter=     135 cpu clock= 3.75E+00
 tran: time= 7.1100E-09 tot_iter=     399 conv_iter=     157 cpu clock= 3.75E+00
 tran: time= 8.1000E-09 tot_iter=     453 conv_iter=     178 cpu clock= 3.75E+00
 tran: time= 9.1100E-09 tot_iter=     509 conv_iter=     200 cpu clock= 3.75E+00
 tran: time= 1.0000E-08 tot_iter=     563 conv_iter=     221 cpu clock= 3.75E+00
 sweep: tran tran648  end,  cpu clock=  3.75E+00 peak memory=       178 mb
 data: data=mydata          r               =    1.00E+04
 dcop: begin dcop,  cpu clock=  3.75E+00
 dcop: end dcop,  cpu clock=  3.75E+00 peak memory=       178 mb  tot_iter=    2596
 output: pi.mt0
 sweep: tran tran649  begin, stop_t=  1.00E-08 #sweeps=1001 cpu clock=  3.75E+00
 tran: time= 1.0320E-09 tot_iter=      67 conv_iter=      27 cpu clock= 3.75E+00
 tran: time= 2.1000E-09 tot_iter=     120 conv_iter=      48 cpu clock= 3.75E+00
 tran: time= 3.0573E-09 tot_iter=     175 conv_iter=      69 cpu clock= 3.75E+00
 tran: time= 4.0831E-09 tot_iter=     228 conv_iter=      90 cpu clock= 3.75E+00
 tran: time= 5.0629E-09 tot_iter=     293 conv_iter=     115 cpu clock= 3.75E+00
 tran: time= 6.0825E-09 tot_iter=     346 conv_iter=     136 cpu clock= 3.75E+00
 tran: time= 7.0633E-09 tot_iter=     411 conv_iter=     161 cpu clock= 3.75E+00
 tran: time= 8.0825E-09 tot_iter=     464 conv_iter=     182 cpu clock= 3.75E+00
 tran: time= 9.0633E-09 tot_iter=     529 conv_iter=     207 cpu clock= 3.76E+00
 tran: time= 1.0000E-08 tot_iter=     582 conv_iter=     228 cpu clock= 3.76E+00
 sweep: tran tran649  end,  cpu clock=  3.76E+00 peak memory=       178 mb
 data: data=mydata          r               =    1.00E+04
 dcop: begin dcop,  cpu clock=  3.76E+00
 dcop: end dcop,  cpu clock=  3.76E+00 peak memory=       178 mb  tot_iter=    2600
 output: pi.mt0
 sweep: tran tran650  begin, stop_t=  1.00E-08 #sweeps=1001 cpu clock=  3.76E+00
 tran: time= 1.0320E-09 tot_iter=      67 conv_iter=      27 cpu clock= 3.76E+00
 tran: time= 2.1000E-09 tot_iter=     120 conv_iter=      48 cpu clock= 3.76E+00
 tran: time= 3.0573E-09 tot_iter=     175 conv_iter=      69 cpu clock= 3.76E+00
 tran: time= 4.0831E-09 tot_iter=     228 conv_iter=      90 cpu clock= 3.76E+00
 tran: time= 5.0629E-09 tot_iter=     293 conv_iter=     115 cpu clock= 3.76E+00
 tran: time= 6.0825E-09 tot_iter=     346 conv_iter=     136 cpu clock= 3.76E+00
 tran: time= 7.0633E-09 tot_iter=     411 conv_iter=     161 cpu clock= 3.76E+00
 tran: time= 8.0825E-09 tot_iter=     464 conv_iter=     182 cpu clock= 3.76E+00
 tran: time= 9.0633E-09 tot_iter=     529 conv_iter=     207 cpu clock= 3.76E+00
 tran: time= 1.0000E-08 tot_iter=     582 conv_iter=     228 cpu clock= 3.76E+00
 sweep: tran tran650  end,  cpu clock=  3.76E+00 peak memory=       178 mb
 data: data=mydata          r               =    1.00E+04
 dcop: begin dcop,  cpu clock=  3.76E+00
 dcop: end dcop,  cpu clock=  3.76E+00 peak memory=       178 mb  tot_iter=    2604
 output: pi.mt0
 sweep: tran tran651  begin, stop_t=  1.00E-08 #sweeps=1001 cpu clock=  3.76E+00
 tran: time= 1.0320E-09 tot_iter=      67 conv_iter=      27 cpu clock= 3.77E+00
 tran: time= 2.1000E-09 tot_iter=     120 conv_iter=      48 cpu clock= 3.77E+00
 tran: time= 3.0573E-09 tot_iter=     175 conv_iter=      69 cpu clock= 3.77E+00
 tran: time= 4.0831E-09 tot_iter=     228 conv_iter=      90 cpu clock= 3.77E+00
 tran: time= 5.0629E-09 tot_iter=     293 conv_iter=     115 cpu clock= 3.77E+00
 tran: time= 6.0825E-09 tot_iter=     346 conv_iter=     136 cpu clock= 3.77E+00
 tran: time= 7.0633E-09 tot_iter=     411 conv_iter=     161 cpu clock= 3.77E+00
 tran: time= 8.0825E-09 tot_iter=     464 conv_iter=     182 cpu clock= 3.77E+00
 tran: time= 9.0633E-09 tot_iter=     529 conv_iter=     207 cpu clock= 3.77E+00
 tran: time= 1.0000E-08 tot_iter=     582 conv_iter=     228 cpu clock= 3.77E+00
 sweep: tran tran651  end,  cpu clock=  3.77E+00 peak memory=       178 mb
 data: data=mydata          r               =    1.00E+04
 dcop: begin dcop,  cpu clock=  3.77E+00
 dcop: end dcop,  cpu clock=  3.77E+00 peak memory=       178 mb  tot_iter=    2608
 output: pi.mt0
 sweep: tran tran652  begin, stop_t=  1.00E-08 #sweeps=1001 cpu clock=  3.77E+00
 tran: time= 1.0320E-09 tot_iter=      67 conv_iter=      27 cpu clock= 3.77E+00
 tran: time= 2.1000E-09 tot_iter=     120 conv_iter=      48 cpu clock= 3.77E+00
 tran: time= 3.0573E-09 tot_iter=     175 conv_iter=      69 cpu clock= 3.77E+00
 tran: time= 4.0831E-09 tot_iter=     228 conv_iter=      90 cpu clock= 3.77E+00
 tran: time= 5.0629E-09 tot_iter=     293 conv_iter=     115 cpu clock= 3.77E+00
 tran: time= 6.0825E-09 tot_iter=     346 conv_iter=     136 cpu clock= 3.77E+00
 tran: time= 7.0633E-09 tot_iter=     411 conv_iter=     161 cpu clock= 3.77E+00
 tran: time= 8.0825E-09 tot_iter=     464 conv_iter=     182 cpu clock= 3.77E+00
 tran: time= 9.0633E-09 tot_iter=     529 conv_iter=     207 cpu clock= 3.77E+00
 tran: time= 1.0000E-08 tot_iter=     582 conv_iter=     228 cpu clock= 3.77E+00
 sweep: tran tran652  end,  cpu clock=  3.77E+00 peak memory=       178 mb
 data: data=mydata          r               =    1.00E+04
 dcop: begin dcop,  cpu clock=  3.77E+00
 dcop: end dcop,  cpu clock=  3.77E+00 peak memory=       178 mb  tot_iter=    2612
 output: pi.mt0
 sweep: tran tran653  begin, stop_t=  1.00E-08 #sweeps=1001 cpu clock=  3.77E+00
 tran: time= 1.0320E-09 tot_iter=      67 conv_iter=      27 cpu clock= 3.77E+00
 tran: time= 2.1000E-09 tot_iter=     120 conv_iter=      48 cpu clock= 3.77E+00
 tran: time= 3.0573E-09 tot_iter=     175 conv_iter=      69 cpu clock= 3.77E+00
 tran: time= 4.0831E-09 tot_iter=     228 conv_iter=      90 cpu clock= 3.77E+00
 tran: time= 5.0629E-09 tot_iter=     293 conv_iter=     115 cpu clock= 3.77E+00
 tran: time= 6.0825E-09 tot_iter=     346 conv_iter=     136 cpu clock= 3.78E+00
 tran: time= 7.0633E-09 tot_iter=     411 conv_iter=     161 cpu clock= 3.78E+00
 tran: time= 8.0825E-09 tot_iter=     464 conv_iter=     182 cpu clock= 3.78E+00
 tran: time= 9.0633E-09 tot_iter=     529 conv_iter=     207 cpu clock= 3.78E+00
 tran: time= 1.0000E-08 tot_iter=     582 conv_iter=     228 cpu clock= 3.78E+00
 sweep: tran tran653  end,  cpu clock=  3.78E+00 peak memory=       178 mb
 data: data=mydata          r               =    1.00E+04
 dcop: begin dcop,  cpu clock=  3.78E+00
 dcop: end dcop,  cpu clock=  3.78E+00 peak memory=       178 mb  tot_iter=    2616
 output: pi.mt0
 sweep: tran tran654  begin, stop_t=  1.00E-08 #sweeps=1001 cpu clock=  3.78E+00
 tran: time= 1.0320E-09 tot_iter=      67 conv_iter=      27 cpu clock= 3.78E+00
 tran: time= 2.1000E-09 tot_iter=     120 conv_iter=      48 cpu clock= 3.78E+00
 tran: time= 3.0573E-09 tot_iter=     175 conv_iter=      69 cpu clock= 3.78E+00
 tran: time= 4.0831E-09 tot_iter=     228 conv_iter=      90 cpu clock= 3.78E+00
 tran: time= 5.0629E-09 tot_iter=     293 conv_iter=     115 cpu clock= 3.78E+00
 tran: time= 6.0825E-09 tot_iter=     346 conv_iter=     136 cpu clock= 3.78E+00
 tran: time= 7.0633E-09 tot_iter=     411 conv_iter=     161 cpu clock= 3.78E+00
 tran: time= 8.0825E-09 tot_iter=     464 conv_iter=     182 cpu clock= 3.78E+00
 tran: time= 9.0633E-09 tot_iter=     529 conv_iter=     207 cpu clock= 3.78E+00
 tran: time= 1.0000E-08 tot_iter=     582 conv_iter=     228 cpu clock= 3.78E+00
 sweep: tran tran654  end,  cpu clock=  3.78E+00 peak memory=       178 mb
 data: data=mydata          r               =    1.00E+04
 dcop: begin dcop,  cpu clock=  3.78E+00
 dcop: end dcop,  cpu clock=  3.78E+00 peak memory=       178 mb  tot_iter=    2620
 output: pi.mt0
 sweep: tran tran655  begin, stop_t=  1.00E-08 #sweeps=1001 cpu clock=  3.78E+00
 tran: time= 1.0861E-09 tot_iter=      68 conv_iter=      27 cpu clock= 3.78E+00
 tran: time= 2.0584E-09 tot_iter=     122 conv_iter=      49 cpu clock= 3.78E+00
 tran: time= 3.0333E-09 tot_iter=     177 conv_iter=      70 cpu clock= 3.78E+00
 tran: time= 4.0489E-09 tot_iter=     226 conv_iter=      90 cpu clock= 3.78E+00
 tran: time= 5.0339E-09 tot_iter=     281 conv_iter=     111 cpu clock= 3.78E+00
 tran: time= 6.0489E-09 tot_iter=     330 conv_iter=     131 cpu clock= 3.78E+00
 tran: time= 7.0339E-09 tot_iter=     385 conv_iter=     152 cpu clock= 3.78E+00
 tran: time= 8.0489E-09 tot_iter=     434 conv_iter=     172 cpu clock= 3.79E+00
 tran: time= 9.0339E-09 tot_iter=     489 conv_iter=     193 cpu clock= 3.79E+00
 tran: time= 1.0000E-08 tot_iter=     538 conv_iter=     213 cpu clock= 3.79E+00
 sweep: tran tran655  end,  cpu clock=  3.79E+00 peak memory=       178 mb
 data: data=mydata          r               =    1.00E+04
 dcop: begin dcop,  cpu clock=  3.79E+00
 dcop: end dcop,  cpu clock=  3.79E+00 peak memory=       178 mb  tot_iter=    2624
 output: pi.mt0
 sweep: tran tran656  begin, stop_t=  1.00E-08 #sweeps=1001 cpu clock=  3.79E+00
 tran: time= 1.0861E-09 tot_iter=      68 conv_iter=      27 cpu clock= 3.79E+00
 tran: time= 2.0584E-09 tot_iter=     122 conv_iter=      49 cpu clock= 3.79E+00
 tran: time= 3.0333E-09 tot_iter=     177 conv_iter=      70 cpu clock= 3.79E+00
 tran: time= 4.0489E-09 tot_iter=     226 conv_iter=      90 cpu clock= 3.79E+00
 tran: time= 5.0339E-09 tot_iter=     281 conv_iter=     111 cpu clock= 3.79E+00
 tran: time= 6.0489E-09 tot_iter=     330 conv_iter=     131 cpu clock= 3.79E+00
 tran: time= 7.0339E-09 tot_iter=     385 conv_iter=     152 cpu clock= 3.79E+00
 tran: time= 8.0489E-09 tot_iter=     434 conv_iter=     172 cpu clock= 3.79E+00
 tran: time= 9.0339E-09 tot_iter=     489 conv_iter=     193 cpu clock= 3.79E+00
 tran: time= 1.0000E-08 tot_iter=     538 conv_iter=     213 cpu clock= 3.79E+00
 sweep: tran tran656  end,  cpu clock=  3.79E+00 peak memory=       178 mb
 data: data=mydata          r               =    1.00E+04
 dcop: begin dcop,  cpu clock=  3.79E+00
 dcop: end dcop,  cpu clock=  3.79E+00 peak memory=       178 mb  tot_iter=    2628
 output: pi.mt0
 sweep: tran tran657  begin, stop_t=  1.00E-08 #sweeps=1001 cpu clock=  3.79E+00
 tran: time= 1.0861E-09 tot_iter=      68 conv_iter=      27 cpu clock= 3.79E+00
 tran: time= 2.0584E-09 tot_iter=     122 conv_iter=      49 cpu clock= 3.79E+00
 tran: time= 3.0333E-09 tot_iter=     177 conv_iter=      70 cpu clock= 3.79E+00
 tran: time= 4.0489E-09 tot_iter=     226 conv_iter=      90 cpu clock= 3.79E+00
 tran: time= 5.0339E-09 tot_iter=     281 conv_iter=     111 cpu clock= 3.79E+00
 tran: time= 6.0489E-09 tot_iter=     330 conv_iter=     131 cpu clock= 3.79E+00
 tran: time= 7.0339E-09 tot_iter=     385 conv_iter=     152 cpu clock= 3.79E+00
 tran: time= 8.0489E-09 tot_iter=     434 conv_iter=     172 cpu clock= 3.79E+00
 tran: time= 9.0339E-09 tot_iter=     489 conv_iter=     193 cpu clock= 3.79E+00
 tran: time= 1.0000E-08 tot_iter=     538 conv_iter=     213 cpu clock= 3.79E+00
 sweep: tran tran657  end,  cpu clock=  3.79E+00 peak memory=       178 mb
 data: data=mydata          r               =    1.00E+04
 dcop: begin dcop,  cpu clock=  3.79E+00
 dcop: end dcop,  cpu clock=  3.79E+00 peak memory=       178 mb  tot_iter=    2632
 output: pi.mt0
 sweep: tran tran658  begin, stop_t=  1.00E-08 #sweeps=1001 cpu clock=  3.79E+00
 tran: time= 1.0861E-09 tot_iter=      68 conv_iter=      27 cpu clock= 3.79E+00
 tran: time= 2.0584E-09 tot_iter=     122 conv_iter=      49 cpu clock= 3.79E+00
 tran: time= 3.0333E-09 tot_iter=     177 conv_iter=      70 cpu clock= 3.79E+00
 tran: time= 4.0489E-09 tot_iter=     226 conv_iter=      90 cpu clock= 3.79E+00
 tran: time= 5.0339E-09 tot_iter=     281 conv_iter=     111 cpu clock= 3.79E+00
 tran: time= 6.0489E-09 tot_iter=     330 conv_iter=     131 cpu clock= 3.79E+00
 tran: time= 7.0339E-09 tot_iter=     385 conv_iter=     152 cpu clock= 3.79E+00
 tran: time= 8.0489E-09 tot_iter=     434 conv_iter=     172 cpu clock= 3.79E+00
 tran: time= 9.0339E-09 tot_iter=     489 conv_iter=     193 cpu clock= 3.80E+00
 tran: time= 1.0000E-08 tot_iter=     538 conv_iter=     213 cpu clock= 3.80E+00
 sweep: tran tran658  end,  cpu clock=  3.80E+00 peak memory=       178 mb
 data: data=mydata          r               =    1.00E+04
 dcop: begin dcop,  cpu clock=  3.80E+00
 dcop: end dcop,  cpu clock=  3.80E+00 peak memory=       178 mb  tot_iter=    2636
 output: pi.mt0
 sweep: tran tran659  begin, stop_t=  1.00E-08 #sweeps=1001 cpu clock=  3.80E+00
 tran: time= 1.0861E-09 tot_iter=      68 conv_iter=      27 cpu clock= 3.80E+00
 tran: time= 2.0584E-09 tot_iter=     122 conv_iter=      49 cpu clock= 3.80E+00
 tran: time= 3.0333E-09 tot_iter=     177 conv_iter=      70 cpu clock= 3.80E+00
 tran: time= 4.0489E-09 tot_iter=     226 conv_iter=      90 cpu clock= 3.80E+00
 tran: time= 5.0339E-09 tot_iter=     281 conv_iter=     111 cpu clock= 3.80E+00
 tran: time= 6.0489E-09 tot_iter=     330 conv_iter=     131 cpu clock= 3.80E+00
 tran: time= 7.0339E-09 tot_iter=     385 conv_iter=     152 cpu clock= 3.80E+00
 tran: time= 8.0489E-09 tot_iter=     434 conv_iter=     172 cpu clock= 3.80E+00
 tran: time= 9.0339E-09 tot_iter=     489 conv_iter=     193 cpu clock= 3.80E+00
 tran: time= 1.0000E-08 tot_iter=     538 conv_iter=     213 cpu clock= 3.80E+00
 sweep: tran tran659  end,  cpu clock=  3.80E+00 peak memory=       178 mb
 data: data=mydata          r               =    1.00E+04
 dcop: begin dcop,  cpu clock=  3.80E+00
 dcop: end dcop,  cpu clock=  3.80E+00 peak memory=       178 mb  tot_iter=    2640
 output: pi.mt0
 sweep: tran tran660  begin, stop_t=  1.00E-08 #sweeps=1001 cpu clock=  3.80E+00
 tran: time= 1.0861E-09 tot_iter=      68 conv_iter=      27 cpu clock= 3.80E+00
 tran: time= 2.0584E-09 tot_iter=     122 conv_iter=      49 cpu clock= 3.80E+00
 tran: time= 3.0333E-09 tot_iter=     177 conv_iter=      70 cpu clock= 3.80E+00
 tran: time= 4.0489E-09 tot_iter=     226 conv_iter=      90 cpu clock= 3.80E+00
 tran: time= 5.0339E-09 tot_iter=     281 conv_iter=     111 cpu clock= 3.80E+00
 tran: time= 6.0489E-09 tot_iter=     330 conv_iter=     131 cpu clock= 3.80E+00
 tran: time= 7.0339E-09 tot_iter=     385 conv_iter=     152 cpu clock= 3.80E+00
 tran: time= 8.0489E-09 tot_iter=     434 conv_iter=     172 cpu clock= 3.80E+00
 tran: time= 9.0339E-09 tot_iter=     489 conv_iter=     193 cpu clock= 3.80E+00
 tran: time= 1.0000E-08 tot_iter=     538 conv_iter=     213 cpu clock= 3.80E+00
 sweep: tran tran660  end,  cpu clock=  3.80E+00 peak memory=       178 mb
 sweep: data            data            1 end
>info:         ***** hspice job concluded
 lic: Release hspice token(s)
