*
*
*
*                       LINUX           Sat Nov  9 18:16:11 2024
*
*
*
*  PROGRAM  advgen
*
*  Name           : advgen - Quantus - (64-bit)
*  Version        : 22.1.1-p041
*  Build Date     : Mon Apr 17 07:36:05 PDT 2023
*
*  HSPICE LIBRARY
*
*  QRC_TECH_DIR /home/viterbi/01/ee577/CDS_GPDK45/gpdk045_v_5_0/qrc/typical 
*
*!LENGTH_UNITS METERS
*
*
*

*
.SUBCKT ph1p3_MSDFF CLK D Q RST gnd! vdd!
*
*
*  caps2d version: 10
*
*
*       TRANSISTOR CARDS
*
*
MXI11/MNM1	gnd!#26	net3#4	XI11/net3#2	gnd!	g45n1svt
+ L=4.5e-08	W=1.2e-07
+ AD=1.68e-14	AS=1.68e-14	PD=5.2e-07	PS=5.2e-07
+ fw=1.2e-07 sa=1.4e-07 sb=1.4e-07 sca=10.5213 scb=0.00984539 scc=0.000291491
MXI11/MNM0	XI11/net3	net6#4	net1#10	gnd!	g45n1svt
+ L=4.5e-08	W=1.2e-07
+ AD=1.68e-14	AS=1.68e-14	PD=5.2e-07	PS=5.2e-07
+ fw=1.2e-07 sa=1.4e-07 sb=1.4e-07 sca=10.5213 scb=0.00984539 scc=0.000291491
MXI13/XI0/MNM0	XI13/net2#5	net4#11	gnd!#22	gnd!
+ g45n1svt	L=4.5e-08	W=1.2e-07
+ AD=1.68e-14	AS=1.68e-14	PD=5.2e-07	PS=5.2e-07
+ fw=1.2e-07 sa=1.4e-07 sb=1.4e-07 sca=9.20059 scb=0.00764836 scc=0.000159521
MXI13/MNM0	net3#13	XI13/net2	net11#6	gnd!
+ g45n1svt	L=4.5e-08	W=1.2e-07
+ AD=1.68e-14	AS=1.68e-14	PD=5.2e-07	PS=5.2e-07
+ fw=1.2e-07 sa=1.4e-07 sb=1.4e-07 sca=9.20059 scb=0.00764836 scc=0.000159521
MXI18/XI0/MNM0	XI18/net2#3	net4#5	gnd!#24	gnd!	g45n1svt
+ L=4.5e-08	W=1.2e-07
+ AD=1.68e-14	AS=1.68e-14	PD=5.2e-07	PS=5.2e-07
+ fw=1.2e-07 sa=1.4e-07 sb=1.4e-07 sca=9.20059 scb=0.00764836 scc=0.000159521
MXI18/MNM0	net2#12	XI18/net2	net1#12	gnd!
+ g45n1svt	L=4.5e-08	W=1.2e-07
+ AD=1.68e-14	AS=1.68e-14	PD=5.2e-07	PS=5.2e-07
+ fw=1.2e-07 sa=1.4e-07 sb=1.4e-07 sca=9.20059 scb=0.00764836 scc=0.000159521
MXI15/XI0/MNM0	XI15/net2#3	CLK#15	gnd!#27	gnd!	g45n1svt
+ L=4.5e-08	W=1.2e-07
+ AD=1.68e-14	AS=1.68e-14	PD=5.2e-07	PS=5.2e-07
+ fw=1.2e-07 sa=1.4e-07 sb=1.4e-07 sca=9.20059 scb=0.00764836 scc=0.000159521
MXI15/MNM0	net2#5	XI15/net2	net13	gnd!	g45n1svt
+ L=4.5e-08	W=1.2e-07
+ AD=1.68e-14	AS=1.68e-14	PD=5.2e-07	PS=5.2e-07
+ fw=1.2e-07 sa=1.4e-07 sb=1.4e-07 sca=9.20059 scb=0.00764836 scc=0.000159521
MXI9/XI0/MNM0	XI9/net2#5	CLK#8	gnd!#28	gnd!	g45n1svt
+ L=4.5e-08	W=1.2e-07
+ AD=1.68e-14	AS=1.68e-14	PD=5.2e-07	PS=5.2e-07
+ fw=1.2e-07 sa=1.4e-07 sb=1.4e-07 sca=9.20059 scb=0.00764836 scc=0.000159521
MXI9/MNM0	net3#8	XI9/net2	D#1	gnd!	g45n1svt
+ L=4.5e-08	W=1.2e-07
+ AD=1.68e-14	AS=1.68e-14	PD=5.2e-07	PS=5.2e-07
+ fw=1.2e-07 sa=1.4e-07 sb=1.4e-07 sca=9.20059 scb=0.00764836 scc=0.000159521
MXI17/MNM0	Q#9	net2	gnd!#21	gnd!	g45n1svt
+ L=4.5e-08	W=1.2e-07
+ AD=1.68e-14	AS=1.68e-14	PD=5.2e-07	PS=5.2e-07
+ fw=1.2e-07 sa=1.4e-07 sb=1.4e-07 sca=9.90901 scb=0.00884432 scc=0.000225386
MXI12/MNM0	net11#3	net1#4	gnd!#23	gnd!	g45n1svt
+ L=4.5e-08	W=1.2e-07
+ AD=1.68e-14	AS=1.68e-14	PD=5.2e-07	PS=5.2e-07
+ fw=1.2e-07 sa=1.4e-07 sb=1.4e-07 sca=9.90901 scb=0.00884432 scc=0.000225386
MXI16/MNM0	net13#4	Q#1	gnd!#25	gnd!	g45n1svt
+ L=4.5e-08	W=1.2e-07
+ AD=1.68e-14	AS=1.68e-14	PD=5.2e-07	PS=5.2e-07
+ fw=1.2e-07 sa=1.4e-07 sb=1.4e-07 sca=9.90901 scb=0.00884432 scc=0.000225386
MXI19/MNM0	net4#15	CLK#9	gnd!#30	gnd!	g45n1svt
+ L=4.5e-08	W=1.2e-07
+ AD=1.68e-14	AS=1.68e-14	PD=5.2e-07	PS=5.2e-07
+ fw=1.2e-07 sa=1.4e-07 sb=1.4e-07 sca=9.90901 scb=0.00884432 scc=0.000225386
MXI22/MNM0	net6#5	RST#1	gnd!#29	gnd!	g45n1svt
+ L=4.5e-08	W=1.2e-07
+ AD=1.68e-14	AS=1.68e-14	PD=5.2e-07	PS=5.2e-07
+ fw=1.2e-07 sa=1.4e-07 sb=1.4e-07 sca=9.90901 scb=0.00884432 scc=0.000225386
MXI11/MPM1	net1#9	net3	vdd!#28	vdd!	g45p1svt
+ L=4.5e-08	W=2.4e-07
+ AD=3.36e-14	AS=3.36e-14	PD=7.6e-07	PS=7.6e-07
+ fw=2.4e-07 sa=1.4e-07 sb=1.4e-07 sca=11.1944 scb=0.00923888 scc=0.000202241
MXI11/MPM0	net1#5	net6	vdd!#30	vdd!	g45p1svt
+ L=4.5e-08	W=2.4e-07
+ AD=3.36e-14	AS=3.36e-14	PD=7.6e-07	PS=7.6e-07
+ fw=2.4e-07 sa=1.4e-07 sb=1.4e-07 sca=11.0834 scb=0.00904972 scc=0.000187092
MXI22/MPM0	net6#7	RST#4	vdd!#18	vdd!	g45p1svt
+ L=4.5e-08	W=2.4e-07
+ AD=3.36e-14	AS=3.36e-14	PD=7.6e-07	PS=7.6e-07
+ fw=2.4e-07 sa=1.4e-07 sb=1.4e-07 sca=15.5779 scb=0.0149308 scc=0.000240309
MXI19/MPM0	net4#13	CLK#3	vdd!#22	vdd!	g45p1svt
+ L=4.5e-08	W=2.4e-07
+ AD=3.36e-14	AS=3.36e-14	PD=7.6e-07	PS=7.6e-07
+ fw=2.4e-07 sa=1.4e-07 sb=1.4e-07 sca=15.5779 scb=0.0149308 scc=0.000240309
MXI9/XI0/MPM0	XI9/net2#3	CLK#6	vdd!#25	vdd!	g45p1svt
+ L=4.5e-08	W=2.4e-07
+ AD=3.36e-14	AS=3.36e-14	PD=7.6e-07	PS=7.6e-07
+ fw=2.4e-07 sa=1.4e-07 sb=1.4e-07 sca=10.4559 scb=0.00793674 scc=0.000107477
MXI15/XI0/MPM0	XI15/net2#5	CLK#12	vdd!#17	vdd!	g45p1svt
+ L=4.5e-08	W=2.4e-07
+ AD=3.36e-14	AS=3.36e-14	PD=7.6e-07	PS=7.6e-07
+ fw=2.4e-07 sa=1.4e-07 sb=1.4e-07 sca=10.4559 scb=0.00793674 scc=0.000107477
MXI9/MPM0	net3#10	CLK#1	D#2	vdd!	g45p1svt
+ L=4.5e-08	W=1.2e-07
+ AD=1.68e-14	AS=1.68e-14	PD=5.2e-07	PS=5.2e-07
+ fw=1.2e-07 sa=1.4e-07 sb=1.4e-07 sca=11.0214 scb=0.00904448 scc=0.000163241
MXI15/MPM0	net2#7	CLK#11	net13#3	vdd!	g45p1svt
+ L=4.5e-08	W=1.2e-07
+ AD=1.68e-14	AS=1.68e-14	PD=5.2e-07	PS=5.2e-07
+ fw=1.2e-07 sa=1.4e-07 sb=1.4e-07 sca=11.0214 scb=0.00904448 scc=0.000163241
MXI16/MPM0	net13#7	Q#4	vdd!#16	vdd!	g45p1svt
+ L=4.5e-08	W=2.4e-07
+ AD=3.36e-14	AS=3.36e-14	PD=7.6e-07	PS=7.6e-07
+ fw=2.4e-07 sa=1.4e-07 sb=1.4e-07 sca=10.6403 scb=0.00827174 scc=0.000129767
MXI18/XI0/MPM0	XI18/net2#5	net4#2	vdd!#15	vdd!	g45p1svt
+ L=4.5e-08	W=2.4e-07
+ AD=3.36e-14	AS=3.36e-14	PD=7.6e-07	PS=7.6e-07
+ fw=2.4e-07 sa=1.4e-07 sb=1.4e-07 sca=10.4559 scb=0.00793674 scc=0.000107477
MXI12/MPM0	net11	net1	vdd!#33	vdd!	g45p1svt
+ L=4.5e-08	W=2.4e-07
+ AD=3.36e-14	AS=3.36e-14	PD=7.6e-07	PS=7.6e-07
+ fw=2.4e-07 sa=1.4e-07 sb=1.4e-07 sca=10.6403 scb=0.00827174 scc=0.000129767
MXI18/MPM0	net2#11	net4	net1#14	vdd!	g45p1svt
+ L=4.5e-08	W=1.2e-07
+ AD=1.68e-14	AS=1.68e-14	PD=5.2e-07	PS=5.2e-07
+ fw=1.2e-07 sa=1.4e-07 sb=1.4e-07 sca=11.0214 scb=0.00904448 scc=0.000163241
MXI13/XI0/MPM0	XI13/net2#3	net4#7	vdd!#36	vdd!	g45p1svt
+ L=4.5e-08	W=2.4e-07
+ AD=3.36e-14	AS=3.36e-14	PD=7.6e-07	PS=7.6e-07
+ fw=2.4e-07 sa=1.4e-07 sb=1.4e-07 sca=10.6253 scb=0.00797597 scc=0.000107482
MXI17/MPM0	Q#8	net2#4	vdd!#1	vdd!	g45p1svt	L=4.5e-08
+ W=2.4e-07
+ AD=3.36e-14	AS=3.36e-14	PD=7.6e-07	PS=7.6e-07
+ fw=2.4e-07 sa=1.4e-07 sb=1.4e-07 sca=15.7239 scb=0.0151885 scc=0.000250442
MXI13/MPM0	net3#11	net4#6	net11#4	vdd!	g45p1svt
+ L=4.5e-08	W=1.2e-07
+ AD=1.68e-14	AS=1.68e-14	PD=5.2e-07	PS=5.2e-07
+ fw=1.2e-07 sa=1.4e-07 sb=1.4e-07 sca=18.1453 scb=0.0194268 scc=0.000476439
*
*
*       RESISTOR AND CAP/DIODE CARDS
*
Ri1	net4#25	net4#28	2.008151	$metal3_conn
+ $W=1e-07	$X=2.4925 $Y=1.085
Ri2	net4#28	net4#21	0.679350	$metal3_conn
+ $W=1e-07	$X=0.7525 $Y=1.085
Ri3	net4#28	net4#23	2.536548	$metal3_conn
+ $W=9.15e-08	$X=2.115 $Y=-0.835
Ri4	net2#15	net2#13	2.610771	$metal3_conn
+ $W=1e-07	$X=4.445 $Y=-1.31
Ri5	net3#16	net3#14	2.625018	$metal3_conn
+ $W=1e-07	$X=4.88 $Y=0.71
Rj1	net4#21	net4#14	0.500000	$metal2_conn
+ $W=8e-08	$X=0.57 $Y=1.085
Rj2	CLK#20	CLK#17	2.666164	$metal2_conn	$W=1e-07
+ $X=1.395 $Y=-0.965
Rj3	net3#14	net3#9	0.500000	$metal2_conn	$W=8e-08
+ $X=1.955 $Y=0.485
Rj4	net2#13	net2#6	0.500000	$metal2_conn	$W=8e-08
+ $X=2.315 $Y=-1.035
Rj5	net6#9	net6#6	2.727468	$metal2_conn	$W=9.4e-08
+ $X=0.74 $Y=0.0175
Rj6	net13#6	net13#2	1.363341	$metal2_conn
+ $W=1e-07	$X=2.455 $Y=-0.73
Rj7	net4#23	net4#17	0.500000	$metal2_conn
+ $W=8e-08	$X=3.295 $Y=-0.88
Rj8	net1#8	net1#13	2.406958	$metal2_conn	$W=9e-08
+ $X=3.02 $Y=-0.9175
Rj9	net4#25	net4#18	0.500000	$metal2_conn
+ $W=8e-08	$X=4.05 $Y=1.085
Rj10	net2#15	net2#9	0.500000	$metal2_conn	$W=8e-08
+ $X=4.445 $Y=-0.985
Rj11	net11#5	net11#2	1.507838	$metal2_conn
+ $W=1e-07	$X=4.175 $Y=0.755
Rj12	net3#16	net3#12	0.500000	$metal2_conn
+ $W=8e-08	$X=4.88 $Y=0.945
Rj13	Q#6	Q#7	2.769801	$metal2_conn	$W=1e-07
+ $X=2.6 $Y=-1.3275
Rk1	CLK#5	CLK	45.060368	$metal1_conn	$W=1.15e-07
+ $X=0.2775 $Y=1.02
Rk2	CLK	CLK#17	0.012053	$metal1_conn	$W=1.3e-07
+ $X=0.215 $Y=1.005
Rk3	RST#3	RST	45.044273	$metal1_conn	$W=1.15e-07
+ $X=0.284 $Y=-1
Rk4	net6#5	net6#6	75.169144	$metal1_conn	$W=9e-08
+ $X=0.515 $Y=-0.595
Rk5	net6#6	net6#7	31.402937	$metal1_conn	$W=8.75e-08
+ $X=0.515 $Y=-0.8825
Rk6	net4#13	net4#14	31.162291	$metal1_conn
+ $W=9e-08	$X=0.515 $Y=1.185
Rk7	net4#14	net4#15	75.369759	$metal1_conn
+ $W=8.75e-08	$X=0.515 $Y=0.7625
Rk8	CLK#14	CLK#20	45.064899	$metal1_conn	$W=1.15e-07
+ $X=1.4525 $Y=-0.895
Rk9	D	D#1	75.341309	$metal1_conn	$W=8e-08
+ $X=1.565 $Y=0.712
Rk10	D	D#2	62.281914	$metal1_conn	$W=8e-08
+ $X=1.565 $Y=1.083
Rk11	XI9/net2#3	XI9/net2#4	31.335035	$metal1_conn
+ $W=8.5e-08	$X=1.18 $Y=1.085
Rk12	XI9/net2#4	XI9/net2#5	75.299042	$metal1_conn
+ $W=8e-08	$X=1.18 $Y=0.685
Rk13	XI9/net2#4	XI9/net2#2	45.769291	$metal1_conn
+ $W=8e-08	$X=1.35 $Y=0.595
Rk14	net13	net13#2	75.202995	$metal1_conn	$W=8e-08
+ $X=2.065 $Y=-0.5825
Rk15	net13#2	net13#3	62.398552	$metal1_conn
+ $W=8e-08	$X=2.065 $Y=-1.0175
Rk16	XI15/net2#3	XI15/net2#4	75.299042	$metal1_conn
+ $W=8e-08	$X=1.68 $Y=-0.665
Rk17	XI15/net2#4	XI15/net2#5	31.335035	$metal1_conn
+ $W=8.5e-08	$X=1.68 $Y=-1.065
Rk18	XI15/net2#4	XI15/net2#2	45.769291	$metal1_conn
+ $W=8e-08	$X=1.85 $Y=-0.575
Rk19	net3#3	net3#6	45.111950	$metal1_conn	$W=1.15e-07
+ $X=2.105 $Y=0.805
Rk20	net3#6	net3#7	0.123307	$metal1_conn	$W=1e-07
+ $X=1.8575 $Y=0.91
Rk21	net3#7	net3#8	75.351128	$metal1_conn	$W=8e-08
+ $X=1.77 $Y=0.7
Rk22	net3#6	net3#9	0.219535	$metal1_conn	$W=8e-08
+ $X=1.945 $Y=0.6525
Rk23	net3#7	net3#10	62.286247	$metal1_conn	$W=9e-08
+ $X=1.77 $Y=1.1
Rk24	net2#5	net2#6	75.388123	$metal1_conn	$W=9e-08
+ $X=2.27 $Y=-0.68
Rk25	net2#6	net2#7	62.171444	$metal1_conn	$W=9e-08
+ $X=2.27 $Y=-1.17
Rk26	Q#3	Q#6	45.078320	$metal1_conn	$W=1.15e-07
+ $X=2.67 $Y=-1
Rk27	XI11/net3	XI11/net3#2	150.522018	$metal1_conn
+ $W=9e-08	$X=2.785 $Y=0.435
Rk28	net6#3	net6#9	45.104767	$metal1_conn	$W=2.75e-07
+ $X=2.7275 $Y=0.7825
Rk29	net13#4	net13#5	75.176102	$metal1_conn
+ $W=9e-08	$X=2.915 $Y=-0.605
Rk30	net13#5	net13#6	0.030187	$metal1_conn
+ $W=1e-07	$X=2.88 $Y=-0.73
Rk31	net13#5	net13#7	31.416475	$metal1_conn
+ $W=8.75e-08	$X=2.915 $Y=-0.8675
Rk32	net4#4	net4#17	45.064899	$metal1_conn	$W=1.15e-07
+ $X=3.3525 $Y=-0.895
Rk33	net1#5	net1#6	31.244337	$metal1_conn	$W=9e-08
+ $X=2.99 $Y=1.115
Rk34	net1#6	net1#7	0.144833	$metal1_conn	$W=9e-08
+ $X=2.99 $Y=0.8975
Rk35	net1#7	net1#8	0.050755	$metal1_conn	$W=1.125e-07
+ $X=3.06 $Y=0.8075
Rk36	net1#6	net1#9	31.600574	$metal1_conn	$W=9e-08
+ $X=2.37 $Y=1.1125
Rk37	net1#7	net1#10	75.214119	$metal1_conn	$W=8e-08
+ $X=2.99 $Y=0.6575
Rk38	net1#8	net1#3	45.393188	$metal1_conn	$W=8e-08
+ $X=3.13 $Y=0.9225
Rk39	net11	net11#2	31.392344	$metal1_conn	$W=8.75e-08
+ $X=3.615 $Y=1.145
Rk40	net11#2	net11#3	75.158554	$metal1_conn
+ $W=9e-08	$X=3.615 $Y=0.6275
Rk41	net1#12	net1#13	75.453888	$metal1_conn
+ $W=8e-08	$X=3.965 $Y=-0.7375
Rk42	net1#13	net1#14	62.166950	$metal1_conn
+ $W=9e-08	$X=3.965 $Y=-1.1725
Rk43	XI18/net2#3	XI18/net2#4	75.299042	$metal1_conn
+ $W=8e-08	$X=3.58 $Y=-0.665
Rk44	XI18/net2#4	XI18/net2#5	31.335035	$metal1_conn
+ $W=8.5e-08	$X=3.58 $Y=-1.065
Rk45	XI18/net2#4	XI18/net2#2	45.769291	$metal1_conn
+ $W=8e-08	$X=3.75 $Y=-0.575
Rk46	net4#18	net4#9	22.500000	$metal1_conn	$W=8e-08
+ $X=4.05 $Y=1.085
Rk47	net2#3	net2#9	45.113762	$metal1_conn	$W=1.15e-07
+ $X=4.5725 $Y=-1
Rk48	net2#9	net2#10	0.210862	$metal1_conn	$W=1e-07
+ $X=4.3025 $Y=-0.89
Rk49	net2#10	net2#11	62.286247	$metal1_conn
+ $W=9e-08	$X=4.17 $Y=-1.08
Rk50	net2#10	net2#12	75.315491	$metal1_conn
+ $W=9e-08	$X=4.17 $Y=-0.68
Rk51	net11#4	net11#5	62.391666	$metal1_conn
+ $W=8e-08	$X=4.665 $Y=1.0275
Rk52	net11#5	net11#6	75.204330	$metal1_conn
+ $W=8e-08	$X=4.665 $Y=0.6175
Rk53	XI13/net2#3	XI13/net2#4	31.342554	$metal1_conn
+ $W=8.5e-08	$X=4.28 $Y=1.085
Rk54	XI13/net2#4	XI13/net2#5	75.299042	$metal1_conn
+ $W=8e-08	$X=4.28 $Y=0.685
Rk55	XI13/net2#4	XI13/net2#2	45.769291	$metal1_conn
+ $W=8e-08	$X=4.45 $Y=0.595
Rk56	Q#7	Q	0.033748	$metal1_conn	$W=1.3e-07
+ $X=4.845 $Y=-1.03
Rk57	Q	Q#8	31.241705	$metal1_conn	$W=9e-08
+ $X=4.815 $Y=-1.16
Rk58	Q	Q#9	75.349998	$metal1_conn	$W=8.75e-08
+ $X=4.815 $Y=-0.7425
Rk59	net3#11	net3#12	62.244659	$metal1_conn
+ $W=9e-08	$X=4.87 $Y=1.135
Rk60	net3#12	net3#13	75.325539	$metal1_conn
+ $W=8.75e-08	$X=4.87 $Y=0.7
Rk61	gnd!#1	gnd!#2	31.065685	$metal1_conn	$W=2.4e-07
+ $X=4.807 $Y=0.01
Rk62	gnd!#2	gnd!#3	0.026024	$metal1_conn	$W=2.4e-07
+ $X=4.673 $Y=0.01
Rk63	gnd!#3	gnd!#4	0.065436	$metal1_conn	$W=2.4e-07
+ $X=4.472 $Y=0.01
Rk64	gnd!#4	gnd!#5	0.074632	$metal1_conn	$W=2.4e-07
+ $X=4.2305 $Y=0.01
Rk65	gnd!#5	gnd!#6	0.082514	$metal1_conn	$W=2.4e-07
+ $X=3.9045 $Y=0.01
Rk66	gnd!#6	gnd!#7	0.088583	$metal1_conn	$W=2.4e-07
+ $X=3.598 $Y=0.01
Rk67	gnd!#7	gnd!#8	0.012137	$metal1_conn	$W=2.4e-07
+ $X=3.405 $Y=0.01
Rk68	gnd!#8	gnd!#9	0.056240	$metal1_conn	$W=2.4e-07
+ $X=3.3325 $Y=0.01
Rk69	gnd!#9	gnd!#10	0.091960	$metal1_conn	$W=2.4e-07
+ $X=2.907 $Y=0.01
Rk70	gnd!#10	gnd!#11	0.026024	$metal1_conn
+ $W=2.4e-07	$X=2.773 $Y=0.01
Rk71	gnd!#11	gnd!	0.040475	$metal1_conn	$W=2.4e-07
+ $X=2.618 $Y=0.01
Rk72	gnd!	gnd!#12	0.024961	$metal1_conn	$W=2.4e-07
+ $X=2.509 $Y=0.01
Rk73	gnd!#12	gnd!#13	0.077259	$metal1_conn
+ $W=2.4e-07	$X=2.3255 $Y=0.01
Rk74	gnd!#13	gnd!#14	0.079887	$metal1_conn
+ $W=2.4e-07	$X=1.9995 $Y=0.01
Rk75	gnd!#14	gnd!#15	0.100906	$metal1_conn
+ $W=2.4e-07	$X=1.6805 $Y=0.01
Rk76	gnd!#15	gnd!#16	0.056240	$metal1_conn
+ $W=2.4e-07	$X=1.3545 $Y=0.01
Rk77	gnd!#16	gnd!#17	0.074632	$metal1_conn
+ $W=2.4e-07	$X=1.1305 $Y=0.01
Rk78	gnd!#17	gnd!#18	0.056240	$metal1_conn
+ $W=2.4e-07	$X=0.9325 $Y=0.01
Rk79	gnd!#18	gnd!#19	0.091960	$metal1_conn
+ $W=2.4e-07	$X=0.535 $Y=0.01
Rk80	gnd!#19	gnd!#20	0.025778	$metal1_conn
+ $W=2.4e-07	$X=0.345 $Y=0.01
Rk81	gnd!#20	gnd!#1	31.038916	$metal1_conn	$W=2.4e-07
+ $X=0.25 $Y=0.01
Rk82	gnd!#3	gnd!#21	75.289413	$metal1_conn	$W=9e-08
+ $X=4.61 $Y=-0.285
Rk83	gnd!#5	gnd!#22	75.276260	$metal1_conn	$W=9e-08
+ $X=4.075 $Y=0.295
Rk84	gnd!#7	gnd!#23	75.302567	$metal1_conn	$W=9e-08
+ $X=3.41 $Y=0.305
Rk85	gnd!#8	gnd!#24	75.276260	$metal1_conn	$W=9e-08
+ $X=3.375 $Y=-0.275
Rk86	gnd!#11	gnd!#25	75.289413	$metal1_conn
+ $W=9e-08	$X=2.71 $Y=-0.285
Rk87	gnd!#13	gnd!#26	75.320213	$metal1_conn
+ $W=8e-08	$X=2.165 $Y=0.3125
Rk88	gnd!#15	gnd!#27	75.276260	$metal1_conn
+ $W=9e-08	$X=1.475 $Y=-0.275
Rk89	gnd!#17	gnd!#28	75.276260	$metal1_conn
+ $W=9e-08	$X=0.975 $Y=0.295
Rk90	gnd!#20	gnd!#29	75.369720	$metal1_conn
+ $W=9e-08	$X=0.31 $Y=-0.285
Rk91	gnd!#20	gnd!#30	75.369720	$metal1_conn
+ $W=9e-08	$X=0.31 $Y=0.305
Rk92	gnd!#1	gnd!#2	31.000000	$metal1_conn	$W=9e-08
+ $X=4.71 $Y=-0.05
Rk93	gnd!#1	gnd!#4	12.400000	$metal1_conn	$W=9e-08
+ $X=4.36 $Y=0.07
Rk94	gnd!#1	gnd!#6	8.857142	$metal1_conn	$W=9e-08
+ $X=3.76 $Y=0.07
Rk95	gnd!#1	gnd!#9	15.500000	$metal1_conn	$W=9e-08
+ $X=3.16 $Y=0.01
Rk96	gnd!#1	gnd!#10	31.000000	$metal1_conn	$W=9e-08
+ $X=2.81 $Y=-0.05
Rk97	gnd!#1	gnd!#12	12.400000	$metal1_conn	$W=9e-08
+ $X=2.46 $Y=0.07
Rk98	gnd!#1	gnd!#14	8.857142	$metal1_conn	$W=9e-08
+ $X=1.86 $Y=0.07
Rk99	gnd!#1	gnd!#16	12.400000	$metal1_conn	$W=9e-08
+ $X=1.26 $Y=0.07
Rk100	gnd!#1	gnd!#18	15.500000	$metal1_conn	$W=9e-08
+ $X=0.76 $Y=0.01
Rk101	gnd!#1	gnd!#19	31.000000	$metal1_conn	$W=9e-08
+ $X=0.41 $Y=0.01
Rk102	vdd!#1	vdd!#2	31.282101	$metal1_conn	$W=9e-08
+ $X=4.61 $Y=-1.5525
Rk103	vdd!#2	vdd!#4	0.423800	$metal1_conn	$W=1.25e-07
+ $X=4.2 $Y=-1.76
Rk104	vdd!#4	vdd!#5	0.191850	$metal1_conn	$W=1.25e-07
+ $X=3.5525 $Y=-1.76
Rk105	vdd!#5	vdd!#6	0.281637	$metal1_conn	$W=1.25e-07
+ $X=3.1075 $Y=-1.76
Rk106	vdd!#6	vdd!#7	0.049687	$metal1_conn	$W=1.25e-07
+ $X=2.745 $Y=-1.76
Rk107	vdd!#7	vdd!	0.072133	$metal1_conn	$W=1.25e-07
+ $X=2.623 $Y=-1.76
Rk108	vdd!	vdd!#8	0.351666	$metal1_conn	$W=1.25e-07
+ $X=2.242 $Y=-1.76
Rk109	vdd!#8	vdd!#9	0.191850	$metal1_conn	$W=1.25e-07
+ $X=1.6525 $Y=-1.76
Rk110	vdd!#9	vdd!#10	0.356459	$metal1_conn	$W=1.25e-07
+ $X=1.1825 $Y=-1.76
Rk111	vdd!#10	vdd!#11	0.174586	$metal1_conn
+ $W=1.25e-07	$X=0.535 $Y=-1.76
Rk112	vdd!#11	vdd!#12	0.049687	$metal1_conn
+ $W=1.25e-07	$X=0.345 $Y=-1.76
Rk113	vdd!#12	vdd!#13	0.074628	$metal1_conn
+ $W=1.25e-07	$X=0.25 $Y=-1.76
Rk114	vdd!#2	vdd!#14	0.049687	$metal1_conn	$W=1.25e-07
+ $X=4.645 $Y=-1.76
Rk115	vdd!#14	vdd!#3	75.124702	$metal1_conn	$W=1.25e-07
+ $X=4.835 $Y=-1.76
Rk116	vdd!#5	vdd!#15	31.272230	$metal1_conn	$W=9e-08
+ $X=3.375 $Y=-1.56
Rk117	vdd!#7	vdd!#16	31.282101	$metal1_conn	$W=9e-08
+ $X=2.71 $Y=-1.5525
Rk118	vdd!#9	vdd!#17	31.272230	$metal1_conn	$W=9e-08
+ $X=1.475 $Y=-1.56
Rk119	vdd!#12	vdd!#18	31.282101	$metal1_conn
+ $W=9e-08	$X=0.31 $Y=-1.5525
Rk120	vdd!#13	vdd!#20	2.188814	$metal1_conn
+ $W=1.1e-07	$X=0.0125 $Y=-1.76
Rk121	vdd!#20	vdd!#21	0.074628	$metal1_conn
+ $W=1.25e-07	$X=0.25 $Y=1.78
Rk122	vdd!#21	vdd!#22	31.282101	$metal1_conn
+ $W=9e-08	$X=0.31 $Y=1.5725
Rk123	vdd!#21	vdd!#23	0.049687	$metal1_conn
+ $W=1.25e-07	$X=0.345 $Y=1.78
Rk124	vdd!#23	vdd!#24	0.281637	$metal1_conn
+ $W=1.25e-07	$X=0.7075 $Y=1.78
Rk125	vdd!#24	vdd!#25	31.272230	$metal1_conn
+ $W=9e-08	$X=0.975 $Y=1.58
Rk126	vdd!#24	vdd!#26	0.391377	$metal1_conn
+ $W=1.25e-07	$X=1.3525 $Y=1.78
Rk127	vdd!#26	vdd!#27	0.201826	$metal1_conn
+ $W=1.25e-07	$X=1.9775 $Y=1.78
Rk128	vdd!#27	vdd!#28	31.301838	$metal1_conn
+ $W=9e-08	$X=2.165 $Y=1.5575
Rk129	vdd!#27	vdd!#29	0.308877	$metal1_conn
+ $W=1.25e-07	$X=2.475 $Y=1.78
Rk130	vdd!#29	vdd!#30	31.298550	$metal1_conn
+ $W=9e-08	$X=2.785 $Y=1.56
Rk131	vdd!#29	vdd!#31	0.186861	$metal1_conn
+ $W=1.25e-07	$X=2.9075 $Y=1.78
Rk132	vdd!#31	vdd!#32	0.124509	$metal1_conn
+ $W=1.25e-07	$X=3.35 $Y=1.78
Rk133	vdd!#32	vdd!#33	31.282101	$metal1_conn
+ $W=9e-08	$X=3.41 $Y=1.5725
Rk134	vdd!#32	vdd!#34	0.049687	$metal1_conn
+ $W=1.25e-07	$X=3.445 $Y=1.78
Rk135	vdd!#34	vdd!#35	0.281637	$metal1_conn
+ $W=1.25e-07	$X=3.8075 $Y=1.78
Rk136	vdd!#35	vdd!#36	31.272230	$metal1_conn
+ $W=9e-08	$X=4.075 $Y=1.58
Rk137	vdd!#35	vdd!#19	10.856254	$metal1_conn
+ $W=1.25e-07	$X=4.2025 $Y=1.78
Rk138	vdd!#3	vdd!#4	9.375000	$metal1_conn	$W=1.25e-07
+ $X=3.76 $Y=-1.76
Rk139	vdd!#3	vdd!#6	75.000000	$metal1_conn	$W=1.25e-07
+ $X=2.81 $Y=-1.76
Rk140	vdd!#3	vdd!#8	9.375000	$metal1_conn	$W=1.25e-07
+ $X=1.86 $Y=-1.76
Rk141	vdd!#3	vdd!#10	37.500000	$metal1_conn	$W=1.25e-07
+ $X=0.76 $Y=-1.76
Rk142	vdd!#3	vdd!#11	75.000000	$metal1_conn	$W=1.25e-07
+ $X=0.41 $Y=-1.76
Rk143	vdd!#3	vdd!#13	75.000000	$metal1_conn	$W=1.25e-07
+ $X=0.16 $Y=-1.76
Rk144	vdd!#3	vdd!#14	75.000000	$metal1_conn	$W=1.25e-07
+ $X=4.71 $Y=-1.76
Rk145	vdd!#19	vdd!#20	75.000000	$metal1_conn
+ $W=1.1e-07	$X=0.16 $Y=1.78
Rk146	vdd!#19	vdd!#23	75.000000	$metal1_conn
+ $W=1.25e-07	$X=0.41 $Y=1.78
Rk147	vdd!#19	vdd!#26	6.250000	$metal1_conn
+ $W=1.25e-07	$X=1.76 $Y=1.78
Rk148	vdd!#19	vdd!#31	37.500000	$metal1_conn
+ $W=1.25e-07	$X=3.16 $Y=1.78
Rk149	vdd!#19	vdd!#34	75.000000	$metal1_conn
+ $W=1.25e-07	$X=3.51 $Y=1.78
Rl1	RST#1	RST#2	168.944901	$poly_conn	$W=3.9e-08
+ $X=0.4125 $Y=-0.7495
Rl2	RST#2	RST#3	2.016559	$poly_conn	$W=9.4e-08
+ $X=0.39 $Y=-1
Rl3	RST#2	RST#4	70.867966	$poly_conn	$W=3.9e-08
+ $X=0.4125 $Y=-1.1225
Rl4	CLK#1	CLK#2	299.790253	$poly_conn	$W=3.9e-08
+ $X=1.4705 $Y=1.5675
Rl5	CLK#2	CLK#3	259.112518	$poly_conn	$W=3.9e-08
+ $X=0.4125 $Y=1.4975
Rl6	CLK#3	CLK#4	70.867966	$poly_conn	$W=3.9e-08
+ $X=0.4125 $Y=1.143
Rl7	CLK#4	CLK#5	2.016559	$poly_conn	$W=9.4e-08
+ $X=0.39 $Y=1.02
Rl8	CLK#2	CLK#6	28.857958	$poly_conn	$W=3.9e-08
+ $X=1.0775 $Y=1.505
Rl9	CLK#6	CLK#7	117.021820	$poly_conn	$W=3.9e-08
+ $X=1.0775 $Y=1.098
Rl10	CLK#7	CLK#8	136.252594	$poly_conn	$W=3.9e-08
+ $X=1.0775 $Y=0.7075
Rl11	CLK#4	CLK#9	168.944901	$poly_conn	$W=3.9e-08
+ $X=0.4125 $Y=0.77
Rl13	XI9/net2	XI9/net2#2	26.903002	$poly_conn
+ $W=3.9e-08	$X=1.6675 $Y=0.4005
Rl14	CLK#11	CLK#12	330.334869	$poly_conn	$W=3.9e-08
+ $X=1.933 $Y=-1.5475
Rl15	CLK#12	CLK#13	117.021820	$poly_conn	$W=3.9e-08
+ $X=1.5775 $Y=-1.078
Rl16	CLK#13	CLK#14	1.266559	$poly_conn	$W=9.4e-08
+ $X=1.555 $Y=-0.895
Rl17	CLK#13	CLK#15	136.252594	$poly_conn	$W=3.9e-08
+ $X=1.5775 $Y=-0.6875
Rl18	XI15/net2	XI15/net2#2	26.903002	$poly_conn
+ $W=3.9e-08	$X=2.1675 $Y=-0.3805
Rl19	net3	net3#2	142.021820	$poly_conn	$W=3.9e-08
+ $X=2.2675 $Y=1.0205
Rl20	net3#2	net3#3	5.112304	$poly_conn	$W=9.4e-08
+ $X=2.24 $Y=0.805
Rl21	net3#2	net3#4	80.483353	$poly_conn	$W=3.9e-08
+ $X=2.2675 $Y=0.67
Rl22	Q#1	Q#2	168.944901	$poly_conn	$W=3.9e-08
+ $X=2.8125 $Y=-0.7495
Rl23	Q#2	Q#3	2.016559	$poly_conn	$W=9.4e-08
+ $X=2.79 $Y=-1
Rl24	Q#2	Q#4	70.867966	$poly_conn	$W=3.9e-08
+ $X=2.8125 $Y=-1.1225
Rl25	net6	net6#2	149.714111	$poly_conn	$W=3.9e-08
+ $X=2.8875 $Y=1.0155
Rl26	net6#2	net6#3	5.112304	$poly_conn	$W=9.4e-08
+ $X=2.86 $Y=0.79
Rl27	net6#2	net6#4	74.714127	$poly_conn	$W=3.9e-08
+ $X=2.8875 $Y=0.6625
Rl28	net1	net1#2	70.867966	$poly_conn	$W=3.9e-08
+ $X=3.5125 $Y=1.143
Rl29	net1#2	net1#3	2.016559	$poly_conn	$W=9.4e-08
+ $X=3.49 $Y=1.02
Rl30	net1#2	net1#4	168.944901	$poly_conn	$W=3.9e-08
+ $X=3.5125 $Y=0.77
Rl31	net4	net4#2	330.334869	$poly_conn	$W=3.9e-08
+ $X=3.833 $Y=-1.5475
Rl32	net4#2	net4#3	117.021820	$poly_conn	$W=3.9e-08
+ $X=3.4775 $Y=-1.078
Rl33	net4#3	net4#4	1.266559	$poly_conn	$W=9.4e-08
+ $X=3.455 $Y=-0.895
Rl34	net4#3	net4#5	136.252594	$poly_conn	$W=3.9e-08
+ $X=3.4775 $Y=-0.6875
Rl35	XI18/net2	XI18/net2#2	26.903002	$poly_conn
+ $W=3.9e-08	$X=4.0675 $Y=-0.3805
Rl36	net2	net2#2	168.944901	$poly_conn	$W=3.9e-08
+ $X=4.7125 $Y=-0.7495
Rl37	net2#2	net2#3	2.016559	$poly_conn	$W=9.4e-08
+ $X=4.69 $Y=-1
Rl38	net2#2	net2#4	70.867966	$poly_conn	$W=3.9e-08
+ $X=4.7125 $Y=-1.1225
Rl39	net4#6	net4#7	330.334869	$poly_conn	$W=3.9e-08
+ $X=4.533 $Y=1.5675
Rl40	net4#7	net4#8	51.637199	$poly_conn	$W=3.9e-08
+ $X=4.1775 $Y=1.183
Rl41	net4#8	net4#9	2.766559	$poly_conn	$W=9.4e-08
+ $X=4.155 $Y=1.085
Rl42	net4#8	net4#10	57.120556	$poly_conn	$W=3.9e-08
+ $X=4.1775 $Y=1
Rl43	net4#10	net4#11	136.252594	$poly_conn
+ $W=3.9e-08	$X=4.1775 $Y=0.7075
Rl45	XI13/net2	XI13/net2#2	26.903002	$poly_conn
+ $W=3.9e-08	$X=4.7675 $Y=0.4005
*
*       CAPACITOR CARDS
*
*
C1	net2#13	vdd!#16	7.64003e-19	$X=2.684 $Y=-1.342
C2	gnd!#13	net3#3	1.81038e-18	$X=2.1685 $Y=0.6175
C3	D	vdd!	2.9459e-18	$X=1.5645 $Y=0.897
C4	CLK#20	net13#2	6.60556e-19	$X=1.8585 $Y=-0.822
C5	Q	vdd!	1.31029e-17	$X=4.814 $Y=-0.951
C6	XI9/net2#3	CLK#3	6.88164e-19	$X=0.695 $Y=1.3465
C7	RST	vdd!	4.32925e-18	$X=0.2465 $Y=-1
C8	vdd!#21	vdd!#19	6.76332e-18	$X=0.324 $Y=1.7055
C9	vdd!#19	gnd!#1	1.84288e-17	$X=2.371 $Y=1.147
C10	XI11/net3	gnd!#23	2.81899e-18	$X=3.1505 $Y=0.478
C11	gnd!#1	Q#1	1.51897e-18	$X=2.811 $Y=-0.538
C12	net13#4	gnd!#24	4.00756e-18	$X=3.125 $Y=-0.473
C13	net4#4	gnd!#24	4.92416e-18	$X=3.398 $Y=-0.708
C14	net4#25	vdd!#35	3.93236e-18	$X=3.9665 $Y=1.5405
C15	XI13/net2#4	net4#7	1.87922e-18	$X=4.2485 $Y=1.1925
C16	net1#8	gnd!#25	2.73125e-18	$X=2.794 $Y=-0.2735
C17	net6#5	gnd!#27	1.05116e-18	$X=0.956 $Y=-0.473
C18	XI9/net2#3	CLK#2	1.93445e-18	$X=1.116 $Y=1.4535
C19	vdd!#25	CLK#3	1.67054e-18	$X=0.6275 $Y=1.37
C20	net4#15	XI9/net2#5	1.72909e-18	$X=0.867 $Y=0.542
C21	Q#3	Q#2	1.63782e-18	$X=2.782 $Y=-0.9625
C22	Q	net2#4	7.24113e-19	$X=4.747 $Y=-1.1985
C23	XI15/net2#2	gnd!#11	2.6541e-18	$X=2.407 $Y=-0.1855
C24	net1#7	net6#2	2.62664e-18	$X=2.9355 $Y=0.8095
C25	gnd!#1	net6#9	6.60074e-18	$X=2.2995 $Y=0.763
C26	net4#13	CLK#3	5.48758e-18	$X=0.451 $Y=1.35
C27	net1#13	net2#11	7.34696e-18	$X=4.088 $Y=-1.2095
C28	net3#14	net1#3	1.81331e-18	$X=3.221 $Y=0.9145
C29	vdd!#19	gnd!#30	1.03864e-17	$X=0.3385 $Y=0.487
C30	net3#9	XI9/net2	1.36649e-18	$X=1.782 $Y=0.5265
C31	vdd!#17	RST#4	1.87907e-18	$X=0.6825 $Y=-1.336
C32	net4#6	vdd!	2.79044e-17	$X=4.7665 $Y=1.3595
C33	D	net3#3	1.98176e-19	$X=1.812 $Y=0.859
C34	net1#8	gnd!#8	6.35445e-18	$X=3.3135 $Y=0.245
C35	vdd!#3	net6#5	8.86158e-19	$X=0.5235 $Y=-0.5135
C36	vdd!#3	vdd!#18	1.60637e-17	$X=0.346 $Y=-1.3505
C37	net2#4	vdd!	7.77405e-18	$X=4.7115 $Y=-1.3285
C38	vdd!#3	gnd!#1	1.66579e-17	$X=2.504 $Y=-1.08
C39	net4#7	vdd!	1.87222e-17	$X=4.1765 $Y=1.386
C40	net1#8	XI11/net3#2	7.6484e-19	$X=2.552 $Y=0.487
C41	net4	vdd!	1.64873e-17	$X=4.0665 $Y=-0.2125
C42	net13#2	CLK#15	6.5954e-19	$X=1.701 $Y=-0.554
C43	net1	vdd!	7.00731e-18	$X=3.5115 $Y=1.3485
C44	net2#13	net2#7	2.27643e-18	$X=2.3125 $Y=-1.268
C45	net4#28	gnd!#17	1.00572e-17	$X=0.968 $Y=0.0965
C46	net4#2	vdd!	2.08282e-17	$X=3.4765 $Y=-1.324
C47	net4#21	XI9/net2#4	4.98549e-19	$X=0.881 $Y=0.997
C48	net4#28	vdd!#19	5.09412e-18	$X=1.076 $Y=0.284
C49	vdd!#22	CLK#3	5.54648e-18	$X=0.375 $Y=1.365
C50	net6	vdd!	8.841e-18	$X=2.8865 $Y=1.2725
C51	net2#3	Q	2.33324e-17	$X=4.7095 $Y=-0.9805
C52	net3#11	vdd!#19	4.10755e-18	$X=4.835 $Y=1.2665
C53	Q#4	vdd!	7.18285e-18	$X=2.8115 $Y=-1.3285
C54	net1#9	net1#5	1.48061e-18	$X=2.7295 $Y=1.271
C55	vdd!#2	net2#9	3.80471e-18	$X=4.444 $Y=-1.243
C56	net3	vdd!	9.72314e-18	$X=2.267 $Y=1.2725
C57	vdd!#16	net13#7	2.15289e-17	$X=2.806 $Y=-1.3075
C58	CLK#11	vdd!	1.32452e-17	$X=2.167 $Y=-1.34
C59	CLK#1	vdd!	1.70376e-17	$X=1.667 $Y=1.3595
C60	CLK#5	vdd!#22	7.04902e-18	$X=0.333 $Y=1.121
C61	CLK#12	vdd!	1.52569e-17	$X=1.577 $Y=-1.324
C62	CLK#6	vdd!	4.54002e-18	$X=1.077 $Y=1.301
C63	net13#6	gnd!#25	2.97101e-18	$X=2.7295 $Y=-0.571
C64	CLK#3	vdd!	1.46991e-17	$X=0.412 $Y=1.366
C65	XI15/net2#2	gnd!#13	2.06497e-17	$X=2.1155 $Y=-0.156
C66	RST#4	vdd!	6.6718e-18	$X=0.412 $Y=-1.3285
C67	net2#15	Q	2.58146e-18	$X=4.6985 $Y=-1.016
C68	vdd!#7	vdd!#5	1.97475e-18	$X=2.892 $Y=-1.688
C69	net4#15	gnd!#28	4.00395e-18	$X=0.762 $Y=0.506
C70	gnd!#1	net3#13	6.16397e-18	$X=4.8515 $Y=0.524
C71	vdd!#19	CLK#3	1.08021e-17	$X=0.435 $Y=1.3695
C72	Q#7	Q	1.14921e-17	$X=4.849 $Y=-1.0195
C73	net2#9	Q	5.13605e-18	$X=4.6425 $Y=-0.9535
C74	RST#3	net6#7	1.12732e-17	$X=0.387 $Y=-1.071
C75	net6#7	RST#4	5.13225e-18	$X=0.4345 $Y=-1.3145
C76	net1#13	net1#14	9.08012e-19	$X=3.929 $Y=-1.2305
C77	D#2	net3#7	1.24545e-18	$X=1.6785 $Y=1.0595
C78	XI11/net3	net6#9	1.54547e-17	$X=2.6855 $Y=0.5475
C79	gnd!#11	XI11/net3	1.04244e-17	$X=2.7505 $Y=0.212
C80	net4#25	net1#6	3.52895e-18	$X=2.9585 $Y=0.9975
C81	net3#3	net3#2	3.3381e-18	$X=2.2345 $Y=0.831
C82	net2#6	gnd!#1	8.50997e-19	$X=2.271 $Y=-0.946
C83	vdd!#24	vdd!#19	1.46269e-17	$X=1.0155 $Y=1.708
C84	Q	gnd!#1	1.11123e-18	$X=4.801 $Y=-0.9455
C85	net2#13	net13#3	3.17939e-18	$X=2.1665 $Y=-1.24
C86	net2#15	XI18/net2#4	1.68466e-18	$X=3.7925 $Y=-0.9735
C87	XI13/net2#4	net11#6	6.68395e-18	$X=4.565 $Y=0.6335
C88	net4#23	net13#5	3.93845e-18	$X=2.896 $Y=-0.8075
C89	net2#11	Q	1.20521e-18	$X=4.472 $Y=-1.102
C90	XI13/net2#2	vdd!	2.06639e-18	$X=4.6875 $Y=0.3195
C91	net2#3	vdd!	5.15277e-18	$X=4.6395 $Y=-1
C92	CLK#20	CLK#13	1.58474e-18	$X=1.5275 $Y=-0.891
C93	vdd!#18	RST#4	6.48454e-18	$X=0.387 $Y=-1.3325
C94	Q#9	gnd!#1	4.3349e-18	$X=4.796 $Y=-0.535
C95	CLK#5	vdd!#19	3.08548e-18	$X=0.3575 $Y=1.0245
C96	vdd!#25	CLK#2	2.72924e-18	$X=1.0365 $Y=1.4775
C97	gnd!#25	gnd!#24	1.85685e-18	$X=3.05 $Y=-0.445
C98	net4#9	vdd!	7.43327e-18	$X=4.0435 $Y=1.0845
C99	XI11/net3	net1#10	1.23559e-17	$X=2.9085 $Y=0.52
C100	net6#6	CLK#15	1.06432e-18	$X=1.499 $Y=-0.49
C101	gnd!#15	XI15/net2#2	2.35483e-18	$X=1.865 $Y=-0.2175
C102	XI9/net2#4	D	2.1391e-17	$X=1.477 $Y=0.8915
C103	net4#23	XI15/net2#2	6.68645e-19	$X=2.224 $Y=-0.4135
C104	net1#3	vdd!	8.72482e-18	$X=3.4235 $Y=1.0195
C105	D	net3#7	2.83492e-17	$X=1.656 $Y=0.898
C106	net4#4	vdd!	3.74434e-18	$X=3.4105 $Y=-0.895
C107	Q#3	vdd!	6.56975e-18	$X=2.739 $Y=-1
C108	net4#28	net3#6	1.62512e-18	$X=1.839 $Y=0.7205
C109	XI11/net3	net6#3	1.31445e-18	$X=2.799 $Y=0.727
C110	CLK#20	RST	3.59227e-18	$X=0.2825 $Y=-0.9985
C111	net3#3	vdd!	1.00053e-18	$X=2.1705 $Y=0.8045
C112	net2#5	net13#6	1.8855e-18	$X=2.4855 $Y=-0.618
C113	net4#28	CLK#17	1.19327e-17	$X=0.4065 $Y=0.7115
C114	net13#2	gnd!#1	1.87969e-18	$X=2.1785 $Y=-0.7565
C115	XI11/net3#2	net1#9	5.90981e-18	$X=2.3645 $Y=0.7685
C116	net1#8	gnd!#11	2.39875e-18	$X=2.8175 $Y=0.067
C117	XI9/net2#2	vdd!	2.06639e-18	$X=1.588 $Y=0.3195
C118	CLK#20	net6#6	3.82665e-17	$X=0.8665 $Y=-0.703
C119	vdd!#18	RST#3	6.25956e-18	$X=0.3345 $Y=-1.0995
C120	net11	net1#2	1.3508e-18	$X=3.5325 $Y=1.026
C121	RST	gnd!#1	1.42146e-18	$X=0.249 $Y=-0.999
C122	vdd!#3	gnd!#29	1.04703e-17	$X=0.333 $Y=-0.465
C123	net11#2	net4#9	1.83284e-18	$X=3.939 $Y=0.98
C124	CLK#14	vdd!	3.01238e-18	$X=1.511 $Y=-0.895
C125	vdd!#3	Q#8	5.16488e-18	$X=4.778 $Y=-1.3125
C126	vdd!#3	RST#4	7.3496e-18	$X=0.422 $Y=-1.331
C127	vdd!#3	Q	1.21199e-18	$X=4.792 $Y=-0.959
C128	net2#7	net13#7	5.02705e-19	$X=2.461 $Y=-1.2595
C129	net1#9	vdd!#30	8.74331e-18	$X=2.608 $Y=1.2995
C130	CLK#5	vdd!	4.95466e-18	$X=0.341 $Y=1.0195
C131	net4#14	CLK#4	5.84093e-18	$X=0.4665 $Y=0.9875
C132	RST#3	vdd!	4.46521e-18	$X=0.343 $Y=-1
C133	XI18/net2#4	net1#12	1.67239e-17	$X=3.845 $Y=-0.6615
C134	XI9/net2#2	gnd!#13	3.22783e-18	$X=1.7955 $Y=0.24
C135	net3#16	vdd!	7.36808e-18	$X=4.552 $Y=0.7095
C136	net1#13	XI18/net2#2	2.48553e-18	$X=3.9165 $Y=-0.4675
C137	net1#13	XI18/net2#5	8.35088e-18	$X=3.597 $Y=-1.2345
C138	net11#4	vdd!#19	4.63522e-18	$X=4.6375 $Y=1.2445
C139	net2#15	vdd!	2.76439e-17	$X=4.174 $Y=-1.31
C140	net4#7	net4#6	2.57723e-18	$X=4.486 $Y=1.372
C141	net4#28	net6#9	3.56044e-17	$X=1.812 $Y=0.551
C142	net4#25	vdd!	1.0675e-17	$X=3.676 $Y=1.0845
C143	net6#9	XI11/net3#2	3.64074e-18	$X=2.349 $Y=0.5475
C144	net4#23	vdd!	3.4775e-18	$X=2.759 $Y=-0.8575
C145	net2#13	vdd!	2.38601e-17	$X=2.597 $Y=-1.335
C146	vdd!#32	vdd!#35	2.549e-18	$X=3.5855 $Y=1.707
C147	net4#9	vdd!#35	4.28836e-18	$X=4.057 $Y=1.357
C148	net4#21	vdd!	1.24804e-18	$X=0.5985 $Y=1.0845
C149	Q#7	vdd!	4.31813e-17	$X=5.009 $Y=-1.335
C150	net13#5	gnd!#1	8.34618e-19	$X=2.9125 $Y=-0.797
C151	XI18/net2#4	net4#2	1.25413e-18	$X=3.553 $Y=-1.135
C152	net3#12	vdd!	9.88946e-18	$X=4.909 $Y=0.9445
C153	net4	net2#4	2.63957e-18	$X=4.544 $Y=-1.038
C154	net11#5	vdd!	2.14505e-18	$X=4.5665 $Y=0.7885
C155	gnd!#1	net3#9	5.87475e-18	$X=1.946 $Y=0.528
C156	net4#28	gnd!#27	2.3126e-18	$X=1.428 $Y=-0.3835
C157	net2#9	vdd!	5.77726e-18	$X=4.474 $Y=-0.955
C158	net6#6	net4#14	1.13009e-18	$X=0.5885 $Y=0.829
C159	net2#13	net13#5	5.80415e-19	$X=2.8695 $Y=-0.8755
C160	net4#23	CLK#14	1.75706e-18	$X=1.637 $Y=-0.8915
C161	vdd!#19	XI13/net2	4.4586e-19	$X=4.7565 $Y=0.5295
C162	net6#6	RST#2	5.59776e-18	$X=0.429 $Y=-0.892
C163	net1#13	vdd!	1.25277e-17	$X=3.6675 $Y=-1.052
C164	net11#2	vdd!	2.61864e-18	$X=3.7465 $Y=0.789
C165	net4#17	vdd!	2.31582e-18	$X=3.294 $Y=-0.88
C166	net1#8	vdd!	2.91483e-18	$X=3.134 $Y=0.4925
C167	net1	net4#7	1.6211e-18	$X=3.7495 $Y=1.3615
C168	vdd!#18	RST	3.25732e-18	$X=0.2545 $Y=-1.0415
C169	CLK#20	RST#1	5.07981e-19	$X=0.4805 $Y=-0.584
C170	net13#6	vdd!	9.0585e-19	$X=2.7505 $Y=-0.73
C171	vdd!#3	RST#3	2.43432e-18	$X=0.3555 $Y=-1.005
C172	vdd!#3	RST	8.92786e-18	$X=0.2505 $Y=-1.002
C173	net6#6	CLK#9	7.43665e-19	$X=0.431 $Y=0.4735
C174	net3#16	XI13/net2#4	4.6128e-18	$X=4.4105 $Y=0.837
C175	Q#6	vdd!	3.11255e-17	$X=2.9105 $Y=-1.3275
C176	gnd!#30	gnd!#28	1.83915e-18	$X=0.65 $Y=0.464
C177	net2#6	vdd!	3.6496e-18	$X=2.2695 $Y=-0.952
C178	gnd!#15	XI9/net2#2	2.73673e-17	$X=1.5465 $Y=0.177
C179	net3#14	XI9/net2#2	2.76073e-18	$X=1.7765 $Y=0.3575
C180	net13#2	vdd!	2.57956e-18	$X=2.1745 $Y=-0.7645
C181	vdd!#27	vdd!#19	8.11504e-18	$X=2.1675 $Y=1.697
C182	net1#8	gnd!#13	1.95621e-18	$X=2.5425 $Y=0.253
C183	D	net3#2	2.29448e-19	$X=1.971 $Y=0.8665
C184	net1#3	net11#2	1.16856e-17	$X=3.5295 $Y=0.9435
C185	CLK#20	vdd!	1.17963e-17	$X=1.0695 $Y=-0.965
C186	net3#13	XI13/net2	3.9444e-18	$X=4.7915 $Y=0.5255
C187	net4#14	vdd!	5.34927e-18	$X=0.582 $Y=1.0545
C188	net4#2	net4	3.59433e-18	$X=3.7205 $Y=-0.8655
C189	net2#10	Q	2.191e-18	$X=4.4705 $Y=-0.9135
C190	net6#6	vdd!	3.21611e-18	$X=0.627 $Y=-0.3925
C191	net1#6	net6	1.14019e-18	$X=2.843 $Y=1.1625
C192	CLK#20	gnd!#1	6.84682e-18	$X=1.1085 $Y=-0.9395
C193	CLK#17	net4#14	2.24344e-18	$X=0.4995 $Y=1.0425
C194	Q#3	gnd!#25	4.38942e-18	$X=2.7285 $Y=-0.77
C195	net1#13	net4#4	2.92965e-18	$X=3.4395 $Y=-0.913
C196	net13#6	gnd!#11	1.58924e-18	$X=2.7305 $Y=-0.4145
C197	net3#16	vdd!#19	1.49713e-18	$X=4.421 $Y=0.764
C198	net1#8	XI18/net2#2	2.02951e-18	$X=3.762 $Y=-0.0905
C199	net1#13	vdd!#15	2.48033e-18	$X=3.448 $Y=-1.285
C200	net3#11	vdd!	9.223e-18	$X=4.864 $Y=1.2625
C201	net2#13	vdd!#17	1.7253e-18	$X=1.763 $Y=-1.352
C202	net4#28	net3#3	9.22691e-19	$X=2.0545 $Y=0.7405
C203	Q#8	vdd!	1.06365e-18	$X=4.809 $Y=-1.306
C204	net11#4	vdd!	3.25722e-18	$X=4.669 $Y=1.239
C205	net6#9	gnd!#26	1.54538e-18	$X=2.1895 $Y=0.5345
C206	net6	net1	2.03232e-18	$X=3.234 $Y=1.3145
C207	gnd!#1	XI13/net2#5	6.25394e-18	$X=4.265 $Y=0.52
C208	XI13/net2#3	vdd!	4.11845e-18	$X=4.274 $Y=1.3135
C209	net6#6	RST#1	4.49204e-18	$X=0.431 $Y=-0.5265
C210	net2#11	vdd!	1.02031e-18	$X=4.164 $Y=-1.2375
C211	gnd!#1	CLK#9	1.93317e-18	$X=0.4185 $Y=0.5575
C212	vdd!#28	vdd!#30	2.37023e-18	$X=2.4795 $Y=1.3395
C213	vdd!#36	vdd!	3.04784e-18	$X=4.079 $Y=1.377
C214	gnd!#25	net13#4	1.47627e-17	$X=2.8205 $Y=-0.481
C215	net2#7	vdd!#16	5.33662e-18	$X=2.413 $Y=-1.2855
C216	net6#6	vdd!#24	1.26032e-18	$X=0.8665 $Y=1.059
C217	net11#6	XI13/net2	2.3632e-18	$X=4.739 $Y=0.5195
C218	XI9/net2#4	vdd!#24	1.21574e-18	$X=1.152 $Y=1.2
C219	net11	vdd!	2.98403e-18	$X=3.609 $Y=1.286
C220	XI18/net2#5	vdd!	1.53033e-18	$X=3.574 $Y=-1.2935
C221	net2#15	net2#10	2.484e-18	$X=4.17 $Y=-0.95
C222	vdd!#33	vdd!	2.47552e-18	$X=3.414 $Y=1.3635
C223	RST	gnd!#29	1.64154e-18	$X=0.259 $Y=-0.899
C224	vdd!#15	vdd!	2.68566e-18	$X=3.379 $Y=-1.3575
C225	net4#23	XI18/net2#4	4.84863e-18	$X=3.4695 $Y=-0.8595
C226	net1#5	vdd!	1.21703e-18	$X=2.984 $Y=1.291
C227	Q#4	net4#2	1.75518e-18	$X=3.0335 $Y=-1.327
C228	gnd!#1	net4#14	1.65112e-18	$X=0.5935 $Y=1.048
C229	gnd!#17	XI9/net2#2	2.31363e-18	$X=1.301 $Y=0.2125
C230	CLK#17	net6#6	3.04256e-17	$X=0.3605 $Y=0.387
C231	net1#8	net1#3	4.09924e-18	$X=3.361 $Y=0.905
C232	CLK#17	RST#1	2.71671e-19	$X=0.3825 $Y=-0.367
C233	net13#7	vdd!	1.93281e-18	$X=2.909 $Y=-1.2655
C234	vdd!#30	vdd!	2.52315e-18	$X=2.789 $Y=1.342
C235	vdd!#29	vdd!#19	6.52166e-18	$X=2.607 $Y=1.7765
C236	XI13/net2#5	XI13/net2#4	1.55374e-17	$X=4.308 $Y=0.656
C237	XI13/net2#3	vdd!#19	6.54356e-18	$X=4.233 $Y=1.3205
C238	gnd!#13	net3#4	3.26918e-18	$X=2.253 $Y=0.461
C239	vdd!#16	vdd!	2.11926e-18	$X=2.714 $Y=-1.344
C240	XI13/net2	net4#6	9.07156e-19	$X=4.767 $Y=0.7505
C241	net1#9	vdd!	6.19257e-18	$X=2.3645 $Y=1.243
C242	net2#7	vdd!	3.87568e-18	$X=2.2645 $Y=-1.2565
C243	gnd!#30	net4#15	1.47627e-17	$X=0.4055 $Y=0.5155
C244	vdd!#28	vdd!	3.03677e-18	$X=2.1695 $Y=1.3375
C245	XI13/net2#5	XI13/net2	4.40471e-19	$X=4.6395 $Y=0.524
C246	net11	net4#8	1.29866e-18	$X=4.1105 $Y=1.1135
C247	net4#25	net3#16	1.60284e-17	$X=4.094 $Y=0.9055
C248	net13#3	vdd!	3.25871e-18	$X=2.0695 $Y=-1.2185
C249	net3#10	vdd!	2.0274e-18	$X=1.7645 $Y=1.257
C250	net3	net6	2.95394e-18	$X=2.5735 $Y=1.2725
C251	gnd!#1	RST#1	1.91007e-18	$X=0.4185 $Y=-0.538
C252	XI15/net2#5	vdd!	3.16392e-18	$X=1.6745 $Y=-1.2935
C253	net3#16	net3#13	3.84916e-18	$X=4.812 $Y=0.5575
C254	XI15/net2#4	CLK#13	5.04623e-18	$X=1.6225 $Y=-0.8775
C255	D#2	vdd!	2.24591e-18	$X=1.5695 $Y=1.2525
C256	Q#9	net2	5.69867e-18	$X=4.7455 $Y=-0.539
C257	vdd!#17	vdd!	4.42386e-18	$X=1.4795 $Y=-1.3575
C258	net3#16	gnd!#3	1.44602e-18	$X=4.5945 $Y=0.129
C259	XI9/net2#3	vdd!	2.20082e-18	$X=1.1745 $Y=1.3135
C260	net1#13	Q#3	9.40213e-19	$X=2.8505 $Y=-1.0065
C261	net6#7	RST#2	2.22215e-18	$X=0.4325 $Y=-1.006
C262	CLK#14	gnd!#15	1.05468e-18	$X=1.5035 $Y=-0.73
C263	net1#13	net13#7	4.14305e-18	$X=3.1075 $Y=-1.21
C264	net1#13	vdd!#5	2.25399e-18	$X=3.4505 $Y=-1.5245
C265	net6#7	vdd!	4.97284e-18	$X=0.5095 $Y=-1.266
C266	net6#6	gnd!#1	2.03328e-17	$X=0.6865 $Y=-0.38
C267	vdd!#22	vdd!	2.15176e-18	$X=0.3145 $Y=1.3635
C268	vdd!#18	vdd!	3.39052e-18	$X=0.3145 $Y=-1.344
C269	RST#2	CLK#14	4.49025e-19	$X=0.884 $Y=-0.9185
C270	XI18/net2#3	XI18/net2#4	1.5559e-17	$X=3.608 $Y=-0.6365
C271	vdd!#19	vdd!	1.06521e-16	$X=2.2925 $Y=1.6565
C272	net6#9	gnd!#11	8.38758e-19	$X=2.618 $Y=0.1105
C273	XI15/net2#4	net13	6.44958e-18	$X=1.9655 $Y=-0.6135
C274	net3#7	net3	6.82915e-19	$X=2.041 $Y=1.103
C275	vdd!#3	vdd!	1.02168e-16	$X=2.4775 $Y=-1.7595
C276	gnd!#21	net2	3.78016e-18	$X=4.676 $Y=-0.5085
C277	vdd!#15	net4#17	1.97148e-18	$X=3.3095 $Y=-0.967
C278	gnd!#1	XI13/net2#2	2.05436e-17	$X=4.67 $Y=0.3165
C279	net4#21	CLK#5	9.93225e-19	$X=0.4355 $Y=1.043
C280	Q	net2#2	6.0068e-18	$X=4.7445 $Y=-0.9405
C281	net4#25	vdd!#19	5.94989e-18	$X=3.6025 $Y=1.1145
C282	net4#28	net3#7	2.03178e-18	$X=1.7015 $Y=0.8365
C283	net4#28	gnd!#1	5.11855e-18	$X=1.014 $Y=0.1185
C284	vdd!#28	net1#9	2.37098e-17	$X=2.2525 $Y=1.297
C285	CLK#17	gnd!#1	9.90178e-18	$X=0.2125 $Y=0.968
C286	net3#16	net11#6	2.34251e-18	$X=4.652 $Y=0.5355
C287	net4	XI18/net2	1.12939e-18	$X=4.067 $Y=-0.4545
C288	net6#6	CLK#13	1.6823e-18	$X=1.4975 $Y=-0.842
C289	XI15/net2#2	gnd!#25	4.06488e-18	$X=2.467 $Y=-0.393
C290	gnd!#8	gnd!#5	3.05014e-18	$X=3.74 $Y=0.094
C291	XI9/net2#4	vdd!#19	6.91908e-19	$X=1.2845 $Y=0.8945
C292	net3#16	gnd!#5	2.34481e-18	$X=4.241 $Y=0.3065
C293	net2#12	net2	2.31495e-18	$X=4.5125 $Y=-0.528
C294	CLK#12	CLK#11	3.59433e-18	$X=1.902 $Y=-1.333
C295	net4#25	XI13/net2#4	9.89238e-19	$X=4.182 $Y=0.9335
C296	gnd!#26	net3#3	7.96678e-18	$X=2.17 $Y=0.648
C297	net4#21	XI9/net2#3	4.93129e-19	$X=0.836 $Y=1.179
C298	vdd!#3	net2#11	3.49715e-18	$X=4.15 $Y=-1.242
C299	net2#3	gnd!#1	8.89608e-19	$X=4.6315 $Y=-0.9965
C300	vdd!#3	XI18/net2	6.14408e-19	$X=4.062 $Y=-0.5095
C301	net11#6	net3#13	1.34716e-17	$X=4.759 $Y=0.5155
C302	net2#5	net13#4	1.05511e-18	$X=2.6355 $Y=-0.5125
C303	net2#15	gnd!#3	1.13794e-18	$X=4.493 $Y=-0.4065
C304	XI18/net2#4	gnd!#1	1.29611e-18	$X=3.654 $Y=-0.8525
C305	CLK#17	CLK#4	9.40363e-19	$X=0.3855 $Y=0.9595
C306	net3#7	net3#6	1.41849e-17	$X=1.8445 $Y=0.852
C307	net6#9	gnd!#13	1.74984e-18	$X=2.208 $Y=0.335
C308	CLK#6	CLK#1	2.88533e-18	$X=1.307 $Y=1.3235
C309	net4#28	XI9/net2#5	9.30944e-19	$X=1.1515 $Y=0.4855
C310	gnd!#13	XI11/net3#2	9.17658e-19	$X=2.297 $Y=0.356
C311	net13#2	net2#5	1.73519e-17	$X=2.2315 $Y=-0.6115
C312	XI13/net2#5	net4#11	3.5925e-18	$X=4.2105 $Y=0.5195
C313	XI9/net2#4	D#1	1.2805e-17	$X=1.452 $Y=0.6645
C314	Q#3	net13#6	7.75051e-18	$X=2.7435 $Y=-0.906
C315	XI13/net2#2	net4#6	1.03046e-18	$X=4.737 $Y=0.968
C316	net3#16	XI13/net2#5	2.08912e-18	$X=4.3195 $Y=0.5535
C317	gnd!#1	net11#3	3.00565e-18	$X=3.6045 $Y=0.521
C318	XI18/net2#4	net4#3	4.99933e-18	$X=3.5225 $Y=-0.8775
C319	XI9/net2#4	vdd!	3.36472e-18	$X=1.2645 $Y=0.8795
C320	vdd!#35	net4#7	3.94948e-18	$X=4.1385 $Y=1.507
C321	gnd!#29	net6#5	1.47627e-17	$X=0.4205 $Y=-0.481
C322	XI15/net2#4	vdd!	5.42755e-18	$X=1.7645 $Y=-0.86
C323	net4#23	net2#10	1.47486e-18	$X=3.9775 $Y=-0.877
C324	CLK#14	CLK#13	2.0227e-18	$X=1.5475 $Y=-0.8885
C325	net3#6	vdd!	1.50797e-18	$X=1.9445 $Y=0.79
C326	net4#23	vdd!#3	2.88436e-18	$X=2.745 $Y=-0.903
C327	net3#7	vdd!	3.08216e-18	$X=1.7695 $Y=0.8995
C328	gnd!#22	net4#11	3.71953e-18	$X=4.143 $Y=0.496
C329	RST#4	CLK#12	4.43447e-19	$X=0.8005 $Y=-1.327
C330	CLK#3	CLK#6	1.32484e-18	$X=0.8415 $Y=1.3235
C331	net3#14	net4#25	2.73956e-17	$X=3.0485 $Y=0.7915
C332	net2#13	net4#23	3.82858e-17	$X=2.6695 $Y=-1.121
C333	net13#5	vdd!	2.04418e-18	$X=2.914 $Y=-0.8005
C334	gnd!#21	XI18/net2	7.73636e-19	$X=4.2065 $Y=-0.4925
C335	net4#28	XI15/net2#2	1.00636e-18	$X=1.9275 $Y=-0.241
C336	net1#6	vdd!	5.84623e-18	$X=2.768 $Y=0.9745
C337	vdd!#9	XI15/net2#5	2.12934e-18	$X=1.581 $Y=-1.4795
C338	net3#10	net1#9	1.71781e-18	$X=1.9425 $Y=1.2525
C339	net13#3	net2#7	1.28614e-17	$X=2.181 $Y=-1.2405
C340	XI18/net2#3	gnd!#1	1.86085e-18	$X=3.5685 $Y=-0.501
C341	XI18/net2#4	vdd!	2.67694e-18	$X=3.664 $Y=-0.86
C342	Q#6	Q#3	1.04929e-18	$X=2.761 $Y=-1.0415
C343	net1#12	net2#10	5.361e-18	$X=4.0785 $Y=-0.7185
C344	net3#16	net3#12	1.11917e-17	$X=4.854 $Y=0.908
C345	XI15/net2#3	XI15/net2#4	1.58654e-17	$X=1.708 $Y=-0.6365
C346	XI15/net2#2	net13	2.07555e-17	$X=2.076 $Y=-0.42
C347	vdd!#1	net2#3	7.04902e-18	$X=4.632 $Y=-1.1035
C348	net2#15	Q#7	4.26452e-17	$X=4.588 $Y=-1.3225
C349	net11#3	net4#11	1.07867e-18	$X=3.96 $Y=0.52
C350	net2#10	vdd!	2.89703e-18	$X=4.169 $Y=-0.88
C351	net6#9	gnd!#15	2.0922e-18	$X=1.753 $Y=0.2195
C352	net6#9	net3#3	9.74376e-18	$X=2.1895 $Y=0.801
C353	XI13/net2#4	vdd!	4.89225e-18	$X=4.364 $Y=0.8795
C354	net3#16	gnd!#22	3.05405e-18	$X=4.1565 $Y=0.497
C355	vdd!#21	vdd!#24	2.67006e-18	$X=0.4355 $Y=1.7065
C356	net2#12	XI18/net2	2.88452e-18	$X=4.0915 $Y=-0.5065
C357	net2#5	gnd!#13	4.85649e-18	$X=2.235 $Y=-0.3405
C358	net2#6	Q#3	7.3062e-19	$X=2.557 $Y=-0.9815
C359	vdd!#3	net1#14	3.29124e-18	$X=3.9585 $Y=-1.2615
C360	net4#28	XI9/net2#3	2.03567e-18	$X=1.137 $Y=1.1295
C361	XI15/net2#4	CLK#12	1.87922e-18	$X=1.653 $Y=-1.135
C362	gnd!#21	Q#9	1.47627e-17	$X=4.7075 $Y=-0.494
C363	vdd!#5	net4#17	1.42177e-18	$X=3.3075 $Y=-1.0135
C364	net3#16	net11#5	2.61023e-17	$X=4.562 $Y=0.763
C365	vdd!#35	vdd!#19	7.67241e-18	$X=4.038 $Y=1.7085
C366	net11	vdd!#19	7.79636e-18	$X=3.5795 $Y=1.294
C367	XI18/net2#2	gnd!#1	1.79357e-17	$X=3.9755 $Y=-0.2975
C368	vdd!#5	net4#2	3.37265e-18	$X=3.438 $Y=-1.462
C369	net3#16	net1#12	9.76041e-19	$X=4.077 $Y=-0.297
C370	XI9/net2#2	gnd!#26	3.39388e-18	$X=1.9375 $Y=0.4195
C371	net3#9	gnd!#26	1.50296e-17	$X=2.017 $Y=0.515
C372	net2#5	gnd!#25	6.9292e-18	$X=2.503 $Y=-0.487
C373	net6#9	gnd!#28	2.14095e-18	$X=1.188 $Y=0.5075
C374	net1#12	XI18/net2	2.84284e-18	$X=4.044 $Y=-0.51
C375	net4#28	net1#9	3.08372e-18	$X=2.0855 $Y=1.0245
C376	net3#2	net6#2	2.79832e-18	$X=2.5755 $Y=0.8415
C377	net4	XI18/net2#2	1.5103e-18	$X=4.026 $Y=-0.2575
C378	Q#6	vdd!#15	1.92044e-18	$X=3.263 $Y=-1.3505
C379	XI15/net2#3	XI15/net2#2	1.31409e-17	$X=1.8355 $Y=-0.4245
C380	XI11/net3	net1#6	2.08829e-19	$X=2.778 $Y=0.7445
C381	net1#9	vdd!#27	6.5539e-18	$X=2.26 $Y=1.4795
C382	vdd!#2	vdd!	1.57231e-17	$X=4.3895 $Y=-1.76
C383	net3#16	net11#3	7.51766e-19	$X=3.7445 $Y=0.55
C384	net4#25	net3#12	8.80819e-19	$X=4.7035 $Y=0.9675
C385	CLK#11	XI15/net2	9.55973e-19	$X=2.167 $Y=-0.7315
C386	vdd!#5	vdd!	1.59238e-17	$X=3.374 $Y=-1.6905
C387	net4#28	net3	8.82974e-19	$X=2.176 $Y=1.194
C388	vdd!#7	vdd!	6.90641e-18	$X=2.7095 $Y=-1.6865
C389	gnd!#1	net1#3	2.19659e-18	$X=3.418 $Y=1.013
C390	net4#11	XI13/net2	1.53707e-18	$X=4.5325 $Y=0.522
C391	vdd!#3	XI15/net2#4	2.87743e-18	$X=1.7745 $Y=-0.873
C392	net6#9	gnd!#17	1.54234e-18	$X=1.306 $Y=0.266
C393	net6#9	XI9/net2#2	4.63761e-18	$X=1.7485 $Y=0.425
C394	vdd!#9	vdd!	1.97602e-17	$X=1.4745 $Y=-1.6905
C395	XI18/net2#3	XI18/net2	3.48131e-19	$X=3.939 $Y=-0.505
C396	XI9/net2#5	XI9/net2#4	1.53216e-17	$X=1.208 $Y=0.656
C397	net3#10	vdd!#28	8.28325e-18	$X=1.911 $Y=1.286
C398	vdd!#12	vdd!	8.17948e-18	$X=0.3095 $Y=-1.6865
C399	gnd!#22	net1#4	1.53034e-18	$X=3.722 $Y=0.5205
C400	net2#15	net2#9	1.09673e-17	$X=4.421 $Y=-1.018
C401	net11#4	net3#11	1.69111e-17	$X=4.775 $Y=1.2515
C402	vdd!#21	vdd!	6.27479e-18	$X=0.3095 $Y=1.706
C403	XI9/net2	CLK#1	9.55973e-19	$X=1.667 $Y=0.76
C404	net4#21	vdd!#19	7.61061e-18	$X=0.623 $Y=1.0925
C405	vdd!#24	vdd!	2.54292e-17	$X=0.9745 $Y=1.71
C406	net13#6	vdd!#16	1.11308e-18	$X=2.7345 $Y=-1.004
C407	net1#9	vdd!#29	1.67237e-18	$X=2.502 $Y=1.538
C408	gnd!#27	XI15/net2#2	5.58862e-18	$X=1.717 $Y=-0.383
C409	XI18/net2	net2	1.55831e-18	$X=4.307 $Y=-0.5185
C410	vdd!#27	vdd!	2.16946e-17	$X=2.1645 $Y=1.6985
C411	net4#9	XI13/net2#3	1.01168e-17	$X=4.143 $Y=1.183
C412	vdd!#29	vdd!	1.6151e-17	$X=2.614 $Y=1.7795
C413	gnd!#15	CLK#15	2.87098e-18	$X=1.56 $Y=-0.4295
C414	gnd!#1	net1#10	4.63747e-18	$X=2.982 $Y=0.5395
C415	net3#8	net3#9	2.34931e-17	$X=1.886 $Y=0.5285
C416	vdd!#32	vdd!	6.56492e-18	$X=3.409 $Y=1.706
C417	net13#2	XI15/net2#2	2.43173e-18	$X=2.1255 $Y=-0.503
C418	net11#3	net1#4	2.67487e-18	$X=3.5515 $Y=0.5445
C419	vdd!#35	vdd!	1.99621e-17	$X=4.074 $Y=1.71
C420	net3#8	net3#6	5.58468e-18	$X=1.85 $Y=0.6525
C421	Q#6	net13#7	6.98856e-18	$X=2.9095 $Y=-1.2825
C422	net2#10	gnd!#1	1.72644e-18	$X=4.161 $Y=-0.8755
C423	net2#9	net2#2	2.07774e-18	$X=4.6345 $Y=-0.942
C424	net6	net1#3	9.6664e-19	$X=3.0885 $Y=1.1775
C425	vdd!#3	XI18/net2#5	3.67539e-18	$X=3.5575 $Y=-1.301
C426	net4#28	gnd!#28	2.12632e-18	$X=0.975 $Y=0.424
C427	net2#12	Q#9	2.54009e-18	$X=4.475 $Y=-0.5225
C428	CLK#5	CLK#4	2.24132e-18	$X=0.382 $Y=0.9825
C429	net1#4	net4#11	2.17017e-18	$X=3.862 $Y=0.5375
C430	XI9/net2#2	D#1	2.17413e-17	$X=1.5765 $Y=0.445
C431	net3#16	net11#2	9.70289e-18	$X=4.0085 $Y=0.763
C432	net1#13	net2#15	2.12664e-17	$X=3.9325 $Y=-1.187
C433	net13#4	gnd!#1	4.94102e-18	$X=2.9075 $Y=-0.5015
C434	gnd!#23	net1#4	3.87618e-18	$X=3.476 $Y=0.5275
C435	net2#5	net13#5	1.19189e-18	$X=2.645 $Y=-0.686
C436	net4#28	vdd!#24	3.75253e-18	$X=0.9655 $Y=1.367
C437	net4#9	vdd!#36	1.26397e-17	$X=4.0595 $Y=1.213
C438	net11#5	net4#6	2.62316e-18	$X=4.7105 $Y=1.1985
C439	gnd!#26	XI11/net3#2	2.04762e-17	$X=2.252 $Y=0.4855
C440	net3#6	vdd!#19	1.78662e-18	$X=1.949 $Y=0.8015
C441	vdd!#9	CLK#14	1.35093e-18	$X=1.5015 $Y=-1.098
C442	gnd!#1	XI13/net2#4	6.09265e-19	$X=4.348 $Y=0.8715
C443	net2#6	net13#7	1.28859e-18	$X=2.5115 $Y=-1.071
C444	Q#7	net2#4	1.72999e-18	$X=4.742 $Y=-1.3295
C445	net4#5	XI18/net2	1.53707e-18	$X=3.8325 $Y=-0.503
C446	vdd!#1	Q#8	2.15289e-17	$X=4.7165 $Y=-1.3245
C447	net3#3	vdd!#27	1.74732e-18	$X=2.1685 $Y=1.087
C448	net2#12	gnd!#5	5.01646e-18	$X=4.1395 $Y=-0.344
C449	net4#28	XI9/net2#2	1.82051e-18	$X=1.497 $Y=0.292
C450	net13#7	Q#2	9.4005e-19	$X=2.8325 $Y=-1.0055
C451	XI9/net2#2	net3#9	7.59358e-19	$X=1.859 $Y=0.479
C452	XI15/net2#5	net13#3	9.50632e-18	$X=1.915 $Y=-1.248
C453	net13#2	gnd!#13	2.64293e-18	$X=2.17 $Y=-0.4
C454	net6#9	net1#9	5.27703e-18	$X=2.342 $Y=1.102
C455	Q#7	vdd!#3	2.05519e-17	$X=4.9025 $Y=-1.353
C456	net1#10	net1#4	1.00279e-18	$X=3.301 $Y=0.5525
C457	gnd!#1	XI11/net3	5.44735e-18	$X=2.7875 $Y=0.4815
C458	gnd!#3	XI13/net2#2	1.53791e-17	$X=4.6515 $Y=0.136
C459	XI18/net2#3	net4#5	3.71991e-18	$X=3.5105 $Y=-0.5005
C460	XI9/net2#5	XI9/net2#2	1.31409e-17	$X=1.3355 $Y=0.4435
C461	Q#6	vdd!#16	6.63074e-18	$X=2.7635 $Y=-1.34
C462	net11	net4#9	7.03293e-18	$X=3.865 $Y=1.167
C463	net6#4	net1#4	1.91713e-18	$X=3.146 $Y=0.532
C464	RST#2	vdd!	8.05335e-18	$X=0.412 $Y=-0.9355
C465	net3#12	vdd!#19	9.24838e-19	$X=4.88 $Y=0.952
C466	CLK#2	vdd!	2.66017e-17	$X=1.077 $Y=1.5475
C467	net11#2	net4#25	2.21204e-17	$X=3.7225 $Y=0.8905
C468	CLK#4	vdd!	6.37823e-18	$X=0.412 $Y=0.956
C469	net4#23	net1#13	4.64875e-17	$X=3.24 $Y=-0.9605
C470	CLK#13	vdd!	3.21319e-18	$X=1.577 $Y=-0.883
C471	XI11/net3	net1#4	5.32212e-19	$X=3.2975 $Y=0.5375
C472	net3#2	vdd!	3.86504e-18	$X=2.267 $Y=0.845
C473	net4#15	XI9/net2#4	1.36772e-18	$X=0.8185 $Y=0.6935
C474	gnd!#28	XI9/net2#2	5.48978e-18	$X=1.217 $Y=0.402
C475	Q#2	vdd!	4.34121e-18	$X=2.8115 $Y=-0.9355
C476	net4#28	vdd!#25	1.85301e-18	$X=0.9725 $Y=1.1895
C477	net6#2	vdd!	4.51827e-18	$X=2.8865 $Y=0.8385
C478	net1#2	vdd!	6.89769e-18	$X=3.5115 $Y=0.956
C479	gnd!#24	net4#5	3.82991e-18	$X=3.443 $Y=-0.477
C480	net4#3	vdd!	3.99977e-18	$X=3.4765 $Y=-0.883
C481	vdd!#19	CLK#2	1.57377e-18	$X=1.094 $Y=1.549
C482	net2#2	vdd!	8.70076e-18	$X=4.7115 $Y=-0.9355
C483	Q#7	net4	1.25168e-18	$X=4.2965 $Y=-0.4865
C484	CLK#14	gnd!#27	3.98763e-18	$X=1.498 $Y=-0.708
C485	gnd!#5	XI13/net2#2	2.31363e-18	$X=4.465 $Y=0.2365
C486	gnd!#17	CLK#8	2.91167e-18	$X=1.0535 $Y=0.42
C487	net4#8	vdd!	6.73967e-18	$X=4.1765 $Y=1.091
C488	net4#25	gnd!#23	1.09497e-18	$X=3.461 $Y=0.5825
C489	Q#1	net4#5	2.29299e-18	$X=3.1615 $Y=-0.518
C490	gnd!#13	net3#6	8.73127e-19	$X=2.008 $Y=0.5905
C491	net1#5	vdd!#19	6.21677e-18	$X=2.971 $Y=1.298
C492	net3#6	net3#2	7.85176e-19	$X=2.1675 $Y=0.828
C493	net2#12	gnd!#21	6.9261e-18	$X=4.3905 $Y=-0.4805
C494	net2#13	net1#13	9.69069e-18	$X=3.1085 $Y=-1.2
C495	net6#9	vdd!#28	1.14441e-18	$X=2.1995 $Y=1.2
C496	XI13/net2#3	net11#4	9.42728e-18	$X=4.5155 $Y=1.2675
C497	net11#5	vdd!#19	3.93764e-18	$X=4.5025 $Y=0.8125
C498	net6#6	XI9/net2#2	1.85471e-18	$X=1.388 $Y=0.1715
C499	CLK#11	XI15/net2#2	9.91798e-19	$X=2.137 $Y=-0.949
C500	net13#4	net4#5	7.75442e-19	$X=3.259 $Y=-0.5005
C501	Q#6	net2#7	1.74122e-18	$X=2.3555 $Y=-1.267
C502	XI13/net2#2	XI13/net2	7.02514e-19	$X=4.7525 $Y=0.487
C503	gnd!#1	XI11/net3#2	1.13354e-17	$X=2.3655 $Y=0.4815
C504	net4#25	net1#8	4.03783e-18	$X=3.3955 $Y=0.7775
C505	gnd!#23	net6#4	1.18938e-18	$X=3.04 $Y=0.501
C506	Q#7	net2#10	1.23106e-18	$X=4.303 $Y=-0.9525
C507	net4#25	net6	8.00942e-19	$X=2.9925 $Y=1.247
C508	XI15/net2#2	gnd!#1	1.72537e-17	$X=2.0915 $Y=-0.2975
C509	net3#4	net6#4	2.1615e-18	$X=2.5805 $Y=0.5145
C510	net4#23	net4#17	7.20941e-18	$X=3.263 $Y=-0.879
C511	XI9/net2#3	vdd!#28	1.88801e-18	$X=1.675 $Y=1.3255
C512	net1#13	net4	2.28997e-18	$X=3.9745 $Y=-0.407
C513	D#2	net3#10	1.87432e-17	$X=1.6685 $Y=1.2545
C514	gnd!#20	gnd!#17	2.17976e-18	$X=0.5965 $Y=0.0445
C515	vdd!#19	CLK#4	3.09029e-18	$X=0.4235 $Y=0.96
C516	gnd!#3	gnd!#1	6.87121e-18	$X=4.589 $Y=-0.0765
C517	net13	net2#5	1.37189e-17	$X=2.153 $Y=-0.5025
C518	net1#3	net11	1.14978e-17	$X=3.495 $Y=1.122
C519	Q#7	net2#9	2.47027e-18	$X=4.5675 $Y=-1.0215
C520	net11#5	net3#12	3.91669e-17	$X=4.8135 $Y=0.9005
C521	vdd!#3	RST#2	3.87306e-18	$X=0.421 $Y=-0.9395
C522	CLK#20	gnd!#27	1.888e-18	$X=1.4115 $Y=-0.524
C523	vdd!#29	net6	1.74077e-18	$X=2.812 $Y=1.411
C524	XI9/net2#2	CLK#1	8.37428e-19	$X=1.638 $Y=0.982
C525	net3#11	net4#6	3.71842e-18	$X=4.8155 $Y=1.311
C526	net1#10	net6#4	2.32695e-18	$X=2.918 $Y=0.522
C527	net4#28	XI9/net2#4	4.10846e-18	$X=1.2155 $Y=0.7675
C528	net4#11	XI13/net2#2	2.8005e-18	$X=4.306 $Y=0.4675
C529	gnd!#1	XI9/net2#2	1.18751e-17	$X=1.596 $Y=0.3165
C530	net3#14	net11#2	1.19007e-18	$X=3.2945 $Y=0.6865
C531	net13#7	net4#3	1.10991e-18	$X=3.352 $Y=-0.9675
C532	net11#4	net4#6	4.65161e-18	$X=4.7225 $Y=1.3045
C533	net1#13	net13#5	6.09907e-18	$X=3.012 $Y=-0.8335
C534	net2#15	Q#6	9.96722e-18	$X=3.552 $Y=-1.319
C535	net11#5	net3#13	6.01415e-18	$X=4.775 $Y=0.605
C536	net1#13	net4#3	1.8277e-18	$X=3.494 $Y=-0.8985
C537	D#1	net3#7	8.6722e-19	$X=1.6795 $Y=0.734
C538	net4#25	net6#9	4.84102e-18	$X=3.0275 $Y=0.9435
C539	net1#3	vdd!#33	9.69183e-18	$X=3.42 $Y=1.161
C540	net4#23	net13#6	1.24405e-17	$X=2.7525 $Y=-0.7535
C541	XI13/net2#3	net4#6	2.61875e-18	$X=4.5955 $Y=1.343
C542	XI11/net3	net6#4	3.54103e-18	$X=2.8645 $Y=0.5065
C543	Q#6	net13#3	7.73966e-19	$X=2.221 $Y=-1.2385
C544	net2#11	vdd!#1	5.71495e-18	$X=4.329 $Y=-1.277
C545	vdd!#3	net13#7	6.03876e-18	$X=2.902 $Y=-1.274
C546	gnd!#24	Q#1	1.12987e-18	$X=3.0215 $Y=-0.5015
C547	vdd!#5	XI18/net2#5	1.59716e-18	$X=3.4785 $Y=-1.484
C548	net1#13	net4#2	2.56419e-18	$X=3.51 $Y=-1.2765
C549	XI9/net2	net3#4	1.75128e-18	$X=1.9365 $Y=0.521
C550	CLK#5	net4#14	2.31488e-17	$X=0.4365 $Y=1.033
C551	Q#7	net1#13	3.77891e-18	$X=4.362 $Y=-1.1985
C552	XI18/net2#2	net2	1.34498e-18	$X=4.514 $Y=-0.4745
C553	net3#14	net11#3	9.85997e-19	$X=3.429 $Y=0.517
C554	Q#8	net2#4	4.02754e-18	$X=4.738 $Y=-1.3225
C555	net4#9	XI13/net2#4	6.45272e-18	$X=4.186 $Y=0.9935
C556	gnd!#22	XI13/net2#5	1.45596e-17	$X=4.177 $Y=0.489
C557	CLK#20	RST#3	2.28391e-18	$X=0.431 $Y=-0.996
C558	net6#9	XI9/net2#4	8.679e-18	$X=1.512 $Y=0.8565
C559	gnd!#5	gnd!#1	9.22382e-18	$X=4.052 $Y=0.09
C560	net2#13	net13#6	2.74741e-18	$X=2.7175 $Y=-0.861
C561	vdd!#1	net2#4	5.67486e-18	$X=4.687 $Y=-1.3325
C562	net3#14	net1#8	6.15718e-18	$X=2.7825 $Y=0.486
C563	XI11/net3#2	net6#4	4.72083e-19	$X=2.7665 $Y=0.5065
C564	net4#23	gnd!#13	1.32971e-18	$X=2.3495 $Y=-0.198
C565	Q#6	vdd!#5	1.41978e-17	$X=3.2485 $Y=-1.592
C566	vdd!#17	XI15/net2#5	2.37098e-17	$X=1.575 $Y=-1.3265
C567	net13#4	Q#1	2.67442e-18	$X=2.8515 $Y=-0.525
C568	CLK#15	XI15/net2	1.53707e-18	$X=1.9325 $Y=-0.503
C569	gnd!#11	gnd!#8	2.23569e-18	$X=2.9665 $Y=-0.0145
C570	net2#11	net2#4	1.18397e-18	$X=4.51 $Y=-1.295
C571	net13#3	net2#6	1.17735e-17	$X=2.1675 $Y=-1.088
C572	Q#2	net4#3	2.01552e-18	$X=3.1365 $Y=-0.91
C573	net6#2	net1#2	1.8496e-18	$X=3.195 $Y=0.896
C574	net3#14	gnd!#8	1.9906e-18	$X=3.063 $Y=0.228
C575	net4#23	Q#6	7.89615e-18	$X=2.8415 $Y=-1.1135
C576	XI18/net2#2	XI18/net2	7.61199e-19	$X=4.0525 $Y=-0.468
C577	XI13/net2#4	net11#4	1.80174e-18	$X=4.547 $Y=1.0945
C578	net11#4	net4#7	5.08719e-19	$X=4.413 $Y=1.3155
C579	vdd!#15	net4#4	4.14072e-18	$X=3.4015 $Y=-1.0285
C580	net11#2	net1#2	3.16313e-18	$X=3.5525 $Y=0.9265
C581	net3#6	vdd!#27	1.13633e-18	$X=2.0195 $Y=1.101
C582	Q#6	net4#2	1.62544e-18	$X=3.373 $Y=-1.325
C583	net3#14	gnd!#23	2.12494e-18	$X=3.2385 $Y=0.474
C584	vdd!#2	net2#10	1.03692e-18	$X=4.2425 $Y=-1.173
C585	RST#3	net6#6	1.14245e-17	$X=0.3725 $Y=-0.9365
C586	gnd!#25	Q#1	3.70225e-18	$X=2.776 $Y=-0.5085
C587	net6#6	gnd!#27	2.39904e-18	$X=1.3565 $Y=-0.43
C588	vdd!#19	gnd!#20	5.29888e-18	$X=0.341 $Y=0.0355
C589	XI13/net2#3	net4#7	5.529e-18	$X=4.213 $Y=1.359
C590	XI18/net2#5	net2#4	3.72512e-19	$X=4.431 $Y=-1.32
C591	net4#23	net2#6	2.68594e-18	$X=2.348 $Y=-0.937
C592	CLK#8	XI9/net2	1.53707e-18	$X=1.4325 $Y=0.522
C593	vdd!#36	XI13/net2#3	2.15289e-17	$X=4.175 $Y=1.3455
C594	CLK#20	gnd!#15	2.74829e-18	$X=1.3315 $Y=-0.3865
C595	gnd!#1	net3#8	6.16397e-18	$X=1.7685 $Y=0.524
C596	net2#13	Q#6	5.42268e-17	$X=2.7515 $Y=-1.3315
C597	gnd!#1	CLK#5	1.60018e-18	$X=0.3495 $Y=1.0155
C598	vdd!#19	CLK#9	3.77694e-18	$X=0.425 $Y=0.567
C599	net3#14	net6#9	2.59382e-17	$X=2.3365 $Y=0.627
C600	net4#23	gnd!#15	1.32094e-18	$X=1.871 $Y=-0.3145
C601	vdd!#36	net4#7	5.02224e-18	$X=4.14 $Y=1.3825
C602	net2#15	vdd!#2	1.13752e-18	$X=4.3295 $Y=-1.6345
C603	net4#5	XI18/net2#2	2.92317e-18	$X=3.606 $Y=-0.4485
C604	net4#28	vdd!#28	1.83747e-18	$X=1.9805 $Y=1.152
C605	net4#4	XI18/net2#4	2.42617e-17	$X=3.4845 $Y=-0.885
C606	net1#6	net6#3	1.90351e-18	$X=2.794 $Y=0.831
C607	Q#6	vdd!#7	6.08202e-18	$X=2.734 $Y=-1.6425
C608	net4#17	Q#2	8.65264e-19	$X=3.091 $Y=-0.9035
C609	net4#23	net13#2	1.54304e-17	$X=2.319 $Y=-0.788
C610	vdd!#3	net1#13	3.9995e-18	$X=3.614 $Y=-1.084
C611	vdd!#1	net4	2.23577e-18	$X=4.3345 $Y=-0.7665
C612	net2#5	Q#1	1.83736e-18	$X=2.627 $Y=-0.5345
C613	net11#5	XI13/net2#4	3.43073e-17	$X=4.4475 $Y=0.842
C614	net6#6	XI9/net2#5	1.82144e-18	$X=1.0955 $Y=0.391
C615	net11	net4#7	9.12955e-19	$X=3.9775 $Y=1.3505
C616	net2#13	net2#6	6.51124e-18	$X=2.3315 $Y=-1.025
C617	XI11/net3	net3#4	5.0576e-19	$X=2.3895 $Y=0.5095
C618	net13#5	net4#17	6.26401e-18	$X=3.174 $Y=-0.855
C619	XI15/net2#3	gnd!#1	2.2275e-18	$X=1.679 $Y=-0.501
C620	net2#3	net2#2	2.98511e-18	$X=4.682 $Y=-0.9625
C621	net11#3	XI13/net2#5	1.46352e-18	$X=3.916 $Y=0.523
C622	RST#3	gnd!#1	1.53057e-18	$X=0.351 $Y=-0.9965
C623	net2#11	net4	2.86084e-18	$X=4.1275 $Y=-0.852
C624	net11#2	vdd!#19	1.36111e-18	$X=3.705 $Y=0.8135
C625	net1#12	net2#12	2.03449e-17	$X=4.0725 $Y=-0.5155
C626	net1#9	net3#2	1.7801e-18	$X=2.284 $Y=0.915
C627	net1#6	net11	7.56642e-19	$X=3.0985 $Y=1.0965
C628	Q#3	net13#5	7.34859e-18	$X=2.8225 $Y=-0.905
C629	net3#14	net1#10	1.50252e-18	$X=2.893 $Y=0.533
C630	vdd!#27	net3	3.3803e-18	$X=2.2415 $Y=1.3775
C631	XI15/net2#3	gnd!#15	2.30028e-18	$X=1.621 $Y=-0.3885
C632	XI9/net2#3	D#2	9.55384e-18	$X=1.4245 $Y=1.2745
C633	net3#14	gnd!#11	1.07754e-18	$X=2.6335 $Y=0.0495
C634	Q#6	Q#4	7.01513e-19	$X=2.822 $Y=-1.3285
C635	RST#1	CLK#15	7.01223e-19	$X=1.0245 $Y=-0.518
C636	CLK#9	CLK#8	2.06635e-18	$X=0.762 $Y=0.5375
C637	gnd!#8	gnd!#1	6.07138e-18	$X=3.4095 $Y=0.095
C638	XI18/net2#4	net1#13	2.77303e-17	$X=3.665 $Y=-0.9055
C639	net2#13	net13#2	1.34126e-17	$X=2.2955 $Y=-0.929
C640	net1#14	net4	3.82327e-18	$X=4.0025 $Y=-0.904
C641	net6#6	gnd!#28	3.67645e-18	$X=0.9285 $Y=0.333
C642	XI11/net3#2	net3#4	2.72512e-18	$X=2.2895 $Y=0.5095
C643	gnd!#30	CLK#5	4.22563e-18	$X=0.33 $Y=0.793
C644	net13#4	XI15/net2	3.19898e-19	$X=2.383 $Y=-0.505
C645	CLK#20	gnd!#17	1.94268e-18	$X=0.999 $Y=-0.184
C646	net2#10	net2#9	7.21939e-18	$X=4.3135 $Y=-0.9155
C647	net4#23	net2#5	8.74223e-19	$X=2.3425 $Y=-0.577
C648	vdd!#3	gnd!#20	5.29888e-18	$X=0.3345 $Y=-0.0105
C649	net3#16	XI13/net2	5.07013e-19	$X=4.753 $Y=0.5365
C650	XI18/net2#2	gnd!#3	2.69037e-18	$X=4.2745 $Y=-0.1975
C651	net6#9	vdd!#25	8.72613e-19	$X=1.299 $Y=1.2325
C652	vdd!#3	RST#1	4.01978e-18	$X=0.422 $Y=-0.546
C653	net11	XI13/net2#3	1.98027e-18	$X=3.9555 $Y=1.3
C654	net1#14	net2#11	1.2675e-17	$X=4.059 $Y=-1.2485
C655	XI18/net2#5	net4	1.95541e-18	$X=3.8295 $Y=-0.7335
C656	net3#16	gnd!#1	8.54778e-18	$X=4.4985 $Y=0.6905
C657	net4#23	CLK#20	1.01594e-17	$X=1.8315 $Y=-0.917
C658	CLK#20	gnd!#29	2.20691e-18	$X=0.4415 $Y=-0.54
C659	vdd!#30	net6#3	1.39662e-18	$X=2.7995 $Y=0.8835
C660	vdd!#36	net1	2.19586e-18	$X=3.6555 $Y=1.3555
C661	RST#1	CLK#9	3.30207e-19	$X=0.412 $Y=0.009
C662	net4#21	CLK#3	9.24305e-19	$X=0.497 $Y=1.237
C663	gnd!#26	net3#4	2.44494e-18	$X=2.238 $Y=0.5075
C664	CLK#20	net13#3	6.28841e-19	$X=1.886 $Y=-1.1725
C665	net6#6	net4#15	5.36732e-18	$X=0.5285 $Y=0.408
C666	net3#14	XI11/net3	3.63144e-18	$X=2.6995 $Y=0.484
C667	gnd!#25	XI15/net2	7.13961e-19	$X=2.3065 $Y=-0.4925
C668	net6#9	net3#6	4.06839e-18	$X=2.0055 $Y=0.789
C669	Q#3	net13#7	1.20352e-17	$X=2.7865 $Y=-1.074
C670	net3#14	gnd!#13	1.70263e-18	$X=2.2405 $Y=0.2355
C671	net11	net1	4.0772e-18	$X=3.5345 $Y=1.334
C672	net4#28	vdd!#27	3.19134e-18	$X=1.9395 $Y=1.411
C673	net2#15	gnd!#1	2.39559e-18	$X=4.1315 $Y=-1.2755
C674	XI18/net2#2	gnd!#5	1.83693e-17	$X=4.019 $Y=-0.158
C675	vdd!#19	net4#6	4.95823e-18	$X=4.739 $Y=1.3625
C676	net11#5	gnd!#3	1.24443e-18	$X=4.591 $Y=0.295
C677	net4#28	net3#14	2.10196e-17	$X=1.8875 $Y=0.3585
C678	net3#14	net3#9	3.66151e-18	$X=1.9835 $Y=0.525
C679	vdd!#2	vdd!#3	6.37377e-18	$X=4.3585 $Y=-1.7605
C680	net3#16	net4#11	1.46755e-18	$X=4.212 $Y=0.5355
C681	vdd!#33	net1	5.05078e-18	$X=3.487 $Y=1.352
C682	XI13/net2#4	XI13/net2	7.84257e-19	$X=4.6975 $Y=0.586
C683	net6#9	net3#7	4.68159e-18	$X=1.842 $Y=0.8835
C684	CLK#14	XI15/net2#4	2.40225e-17	$X=1.5845 $Y=-0.885
C685	net1#8	vdd!#19	2.82443e-18	$X=3.0925 $Y=0.55
C686	net13#2	CLK#11	4.82656e-19	$X=2.169 $Y=-1.157
C687	net1#5	net1	1.31539e-18	$X=3.374 $Y=1.333
C688	net1#13	net4#17	2.596e-18	$X=3.3185 $Y=-0.8915
C689	gnd!#1	XI9/net2#5	6.17933e-18	$X=1.1815 $Y=0.52
C690	net11#3	gnd!#22	4.024e-18	$X=3.826 $Y=0.492
C691	gnd!#8	net11#3	1.83411e-18	$X=3.563 $Y=0.418
C692	vdd!#16	Q#3	7.04902e-18	$X=2.7315 $Y=-1.104
C693	RST#3	gnd!#29	4.8213e-18	$X=0.331 $Y=-0.778
C694	net6#6	gnd!#15	1.4438e-18	$X=1.2075 $Y=-0.173
C695	net3#14	XI11/net3#2	4.74867e-18	$X=2.3675 $Y=0.484
C696	net11	vdd!#36	6.08052e-18	$X=3.858 $Y=1.334
C697	net3#16	net11#4	7.30795e-19	$X=4.648 $Y=1.1435
C698	XI18/net2#5	net4#2	7.34355e-18	$X=3.5155 $Y=-1.312
C699	CLK#17	net4#15	2.97233e-18	$X=0.438 $Y=0.6505
C700	gnd!#11	gnd!#1	4.40936e-18	$X=2.708 $Y=-0.0765
C701	net2#10	net2#2	1.7386e-18	$X=4.522 $Y=-0.9165
C702	vdd!#30	net1	9.31973e-19	$X=3.3315 $Y=1.3465
C703	net2#15	Q#8	1.52102e-18	$X=4.658 $Y=-1.307
C704	net1#6	net1#8	2.58308e-17	$X=2.8495 $Y=0.867
C705	net6#6	gnd!#30	1.93049e-18	$X=0.36 $Y=0.346
C706	net13	XI15/net2	2.12138e-18	$X=2.139 $Y=-0.5
C707	vdd!#3	net2#3	1.23094e-18	$X=4.626 $Y=-1.005
C708	vdd!#9	CLK#12	4.87651e-18	$X=1.5395 $Y=-1.458
C709	vdd!#3	net2#4	1.70977e-18	$X=4.7005 $Y=-1.331
C710	net11#5	gnd!#5	5.872e-19	$X=4.3365 $Y=0.462
C711	vdd!#15	net4#2	4.73326e-18	$X=3.4375 $Y=-1.338
C712	net11#2	vdd!#35	1.03464e-18	$X=3.939 $Y=1.329
C713	gnd!#8	XI18/net2#2	2.31363e-18	$X=3.776 $Y=-0.1515
C714	net3#3	net1#7	1.00421e-18	$X=2.694 $Y=0.787
C715	XI13/net2#2	net11#6	2.16402e-17	$X=4.676 $Y=0.439
C716	net4#23	gnd!#1	6.05374e-18	$X=2.7525 $Y=-0.83
C717	vdd!#25	XI9/net2#3	2.37098e-17	$X=1.075 $Y=1.3455
C718	net2#9	gnd!#3	2.13862e-18	$X=4.5245 $Y=-0.629
C719	net2#10	net2	8.88173e-19	$X=4.5065 $Y=-0.6685
C720	net1#8	net1#2	2.93547e-18	$X=3.4715 $Y=0.906
C721	net4#17	XI18/net2#4	2.59878e-18	$X=3.3625 $Y=-0.8765
C722	net11#5	XI13/net2	2.42971e-18	$X=4.7415 $Y=0.558
C723	CLK#17	net6#5	1.47622e-18	$X=0.454 $Y=-0.271
C724	XI9/net2#2	net3#4	9.80527e-19	$X=2.1205 $Y=0.4745
C725	net13#7	net4#2	1.59532e-18	$X=3.264 $Y=-1.3025
C726	XI15/net2#4	net13#2	2.84381e-17	$X=1.9505 $Y=-0.817
C727	net1#7	net1#8	1.68113e-17	$X=3.006 $Y=0.7445
C728	net6#2	net1#4	9.23726e-19	$X=3.1755 $Y=0.7095
C729	XI15/net2#2	XI15/net2	7.61199e-19	$X=2.1525 $Y=-0.468
C730	XI15/net2#3	XI15/net2	3.48131e-19	$X=2.039 $Y=-0.505
C731	net6#6	gnd!#29	2.48353e-18	$X=0.36 $Y=-0.445
C732	net13#6	net1#13	1.9303e-17	$X=2.936 $Y=-0.795
C733	net1#8	net11#2	1.67835e-17	$X=3.525 $Y=0.6815
C734	net3#16	XI13/net2#3	5.18045e-19	$X=4.3455 $Y=1.1585
C735	vdd!#33	net6	1.73752e-18	$X=3.043 $Y=1.299
C736	net1#2	net4#9	3.07294e-18	$X=3.6605 $Y=0.9915
C737	net1#13	net2#10	2.69249e-17	$X=4.094 $Y=-0.906
C738	net4#21	net4#14	6.56718e-18	$X=0.5895 $Y=1.0685
C739	net3#14	gnd!#26	5.19195e-18	$X=2.205 $Y=0.4845
C740	vdd!#19	net4#7	4.14346e-18	$X=4.1535 $Y=1.389
C741	D#1	net3#8	2.03449e-17	$X=1.668 $Y=0.528
C742	vdd!#27	CLK#1	1.87242e-18	$X=1.812 $Y=1.458
C743	gnd!#1	net4#15	5.87076e-18	$X=0.522 $Y=0.5615
C744	vdd!#5	vdd!#3	5.16455e-18	$X=3.3595 $Y=-1.692
C745	net2#15	vdd!#1	2.14288e-18	$X=4.502 $Y=-1.3355
C746	vdd!#3	net13#3	5.05639e-18	$X=2.073 $Y=-1.224
C747	vdd!#27	vdd!#29	3.23424e-18	$X=2.403 $Y=1.741
C748	XI13/net2#5	XI13/net2#2	1.31126e-17	$X=4.4355 $Y=0.4435
C749	vdd!#3	net13#6	9.36353e-19	$X=2.7475 $Y=-0.7425
C750	net3#10	vdd!#19	4.12504e-18	$X=1.7705 $Y=1.2615
C751	net6#6	gnd!#17	2.32414e-18	$X=0.8945 $Y=-0.0195
C752	XI18/net2#3	gnd!#8	3.89567e-18	$X=3.532 $Y=-0.3375
C753	net1#5	net6	3.55704e-18	$X=2.9165 $Y=1.278
C754	net11#2	XI13/net2#5	1.06696e-18	$X=4.1215 $Y=0.5995
C755	net13#6	Q#2	8.91348e-19	$X=2.795 $Y=-0.8795
C756	net4#25	net11#4	1.5503e-18	$X=4.4765 $Y=1.2085
C757	CLK#17	gnd!#30	3.22823e-18	$X=0.2855 $Y=0.5665
C758	net6#7	vdd!#17	2.23553e-18	$X=1.0235 $Y=-1.3145
C759	vdd!#33	vdd!#36	2.21379e-18	$X=3.748 $Y=1.37
C760	net4#13	XI9/net2#3	8.30903e-19	$X=0.82 $Y=1.3205
C761	XI18/net2#5	net1#14	6.58787e-18	$X=3.842 $Y=-1.2695
C762	gnd!#13	gnd!#1	8.6411e-18	$X=2.17 $Y=0.0985
C763	net6#9	vdd!#19	3.00694e-18	$X=2.2925 $Y=0.8365
C764	net4#21	net6#6	3.10941e-18	$X=0.603 $Y=0.8295
C765	XI9/net2#2	XI9/net2	6.73486e-19	$X=1.6525 $Y=0.487
C766	net3#8	XI9/net2	2.46176e-18	$X=1.6915 $Y=0.5255
C767	vdd!#30	net6	4.52354e-18	$X=2.858 $Y=1.2925
C768	CLK#15	XI15/net2#2	3.23371e-18	$X=1.706 $Y=-0.4485
C769	gnd!#23	gnd!#22	2.48804e-18	$X=3.75 $Y=0.464
C770	net2#3	gnd!#21	4.68323e-18	$X=4.629 $Y=-0.771
C771	net3#14	net1#4	6.94648e-19	$X=3.392 $Y=0.551
C772	gnd!#8	net1#3	1.10845e-18	$X=3.423 $Y=0.7285
C773	net6#5	gnd!#1	5.51353e-18	$X=0.5185 $Y=-0.502
C774	net4#28	XI15/net2#4	9.62202e-19	$X=1.6415 $Y=-0.7145
C775	XI18/net2#4	XI18/net2	6.89481e-19	$X=3.9975 $Y=-0.567
C776	net4#28	CLK#20	1.41801e-17	$X=1.023 $Y=-0.592
C777	vdd!#15	Q#4	2.14913e-18	$X=2.9555 $Y=-1.336
C778	XI9/net2#3	vdd!#24	6.54356e-18	$X=1.0945 $Y=1.471
C779	gnd!#22	XI13/net2#2	5.54524e-18	$X=4.317 $Y=0.402
C780	net3#14	gnd!#1	1.11137e-17	$X=2.3825 $Y=0.467
C781	net3#3	vdd!#28	5.54811e-18	$X=2.17 $Y=0.998
C782	CLK#17	gnd!#29	4.12749e-18	$X=0.2855 $Y=-0.1925
C783	net3#14	net3#8	1.31653e-18	$X=1.8695 $Y=0.5185
C784	CLK#17	net4#21	6.99658e-18	$X=0.5045 $Y=1.0645
C785	XI9/net2#2	CLK#15	8.33493e-19	$X=1.5795 $Y=-0.2915
C786	net1#9	net6	2.0138e-18	$X=2.7635 $Y=1.2655
C787	Q#6	net1#13	3.3156e-17	$X=3.278 $Y=-1.194
C788	vdd!#3	XI18/net2#4	1.21893e-18	$X=3.6475 $Y=-0.873
C789	vdd!#3	net4	3.88406e-18	$X=4.0445 $Y=-0.2345
C790	net4#9	net4#8	1.44943e-18	$X=4.1555 $Y=1.0895
C791	net2#15	net2#11	2.85394e-18	$X=4.166 $Y=-1.25
C792	XI13/net2#4	net4#11	5.65836e-19	$X=4.2215 $Y=0.6045
C793	net4#14	CLK#6	1.00652e-18	$X=0.9075 $Y=1.2165
C794	net4#28	vdd!	3.22879e-18	$X=0.9345 $Y=0.1245
C795	net13#7	Q#4	4.18415e-18	$X=2.834 $Y=-1.314
C796	D#1	XI9/net2	2.45718e-18	$X=1.6425 $Y=0.526
C797	net4#13	vdd!#25	6.0733e-18	$X=0.7335 $Y=1.3505
C798	net4#25	XI13/net2#3	9.68889e-19	$X=4.11 $Y=1.2505
C799	vdd!#28	net6	7.53665e-19	$X=2.677 $Y=1.2915
C800	net11#2	gnd!#22	2.45849e-18	$X=3.983 $Y=0.5515
C801	CLK#8	XI9/net2#2	2.80326e-18	$X=1.206 $Y=0.4675
C802	net11#4	net4#8	6.76608e-19	$X=4.267 $Y=1.118
C803	net4#21	gnd!#1	4.63064e-18	$X=0.611 $Y=1.077
C804	net1#13	net2#6	8.45721e-19	$X=2.517 $Y=-0.97
C805	vdd!#16	Q#4	5.51874e-18	$X=2.787 $Y=-1.3325
C806	net6#9	net3#2	1.2053e-18	$X=2.269 $Y=0.8395
C807	net6#9	vdd!#24	1.06393e-18	$X=1.416 $Y=1.3995
C808	net6#9	net1#6	3.78947e-17	$X=2.678 $Y=0.938
C809	RST#2	CLK#13	6.37193e-19	$X=0.981 $Y=-0.91
C810	gnd!#15	gnd!#1	9.17696e-18	$X=1.49 $Y=-0.071
C811	net3#14	net6#4	8.49879e-19	$X=2.8475 $Y=0.51
C812	vdd!#19	net1	3.16192e-18	$X=3.5035 $Y=1.3505
C813	net11#2	net4#11	6.7406e-19	$X=4.1005 $Y=0.566
C814	net11#2	XI13/net2#4	4.76492e-18	$X=4.1135 $Y=0.8425
C815	net4#14	CLK#3	2.38966e-18	$X=0.4945 $Y=1.214
C816	vdd!#33	net11	2.15289e-17	$X=3.5065 $Y=1.3265
C817	net13#5	Q#2	3.04028e-18	$X=2.8515 $Y=-0.883
C818	net13#5	net4#5	6.53718e-19	$X=3.2555 $Y=-0.6175
C819	net4#14	XI9/net2#3	1.91932e-18	$X=0.809 $Y=1.1535
C820	vdd!#3	XI15/net2#5	4.90005e-18	$X=1.6865 $Y=-1.301
C821	Q#6	vdd!#3	1.2149e-17	$X=2.8925 $Y=-1.346
C822	net4#14	XI9/net2#4	3.63624e-18	$X=0.8515 $Y=0.985
C823	XI15/net2#3	CLK#15	3.88465e-18	$X=1.6105 $Y=-0.5005
C824	D#2	vdd!#19	5.05639e-18	$X=1.578 $Y=1.257
C825	net3#14	D#1	1.43931e-18	$X=1.71 $Y=0.521
C826	net2#15	net1#14	1.69806e-18	$X=3.999 $Y=-1.2655
C827	CLK#20	XI15/net2#4	4.91474e-18	$X=1.5905 $Y=-0.8865
C828	net4#4	gnd!#8	1.39365e-18	$X=3.413 $Y=-0.688
C829	net13#2	net1#13	1.32278e-18	$X=2.577 $Y=-0.8425
C830	net6#6	gnd!#20	3.42948e-18	$X=0.368 $Y=-0.065
C831	net6	net1#2	8.56623e-19	$X=3.25 $Y=1.0885
C832	net1#13	XI18/net2#3	8.33834e-19	$X=3.5885 $Y=-0.5885
C833	gnd!#27	XI15/net2#3	1.47627e-17	$X=1.577 $Y=-0.47
C834	Q#7	gnd!#1	3.65062e-18	$X=4.9435 $Y=-1.2995
C835	vdd!#30	net3	1.99005e-18	$X=2.4175 $Y=1.2925
C836	Q#6	net4#17	6.47804e-19	$X=3.268 $Y=-0.911
C837	net6#9	net1#7	1.70524e-17	$X=2.9225 $Y=0.778
C838	net4#23	vdd!#9	1.87444e-18	$X=1.792 $Y=-1.485
C839	net6#9	net1#8	4.75941e-18	$X=2.755 $Y=0.624
C840	net4#25	vdd!#36	1.75412e-18	$X=3.9715 $Y=1.2985
C841	XI13/net2#4	net4#8	9.76932e-19	$X=4.2015 $Y=1.063
C842	vdd!#24	CLK#2	9.78979e-18	$X=1.045 $Y=1.597
C843	net1#3	vdd!#19	5.12382e-18	$X=3.4075 $Y=1.0285
C844	gnd!#5	net4#11	2.88998e-18	$X=4.16 $Y=0.4485
C845	net1#9	net3	5.67555e-18	$X=2.2895 $Y=1.2655
C846	net4#28	gnd!#15	3.21872e-18	$X=1.355 $Y=-0.029
C847	gnd!#27	CLK#15	4.10265e-18	$X=1.543 $Y=-0.477
C848	gnd!#23	net11#3	1.44987e-17	$X=3.5205 $Y=0.5
C849	net2#13	vdd!#7	1.05593e-18	$X=2.695 $Y=-1.642
C850	net3#14	net3#4	9.81847e-19	$X=2.2755 $Y=0.514
C851	net3#7	net1#9	3.74801e-18	$X=1.928 $Y=0.991
C852	net6#9	vdd!#27	1.65797e-18	$X=2.2015 $Y=1.4335
C853	vdd!#3	net4#2	3.15742e-18	$X=3.467 $Y=-1.3285
C854	gnd!#1	net3#12	1.09741e-18	$X=4.8975 $Y=0.9395
C855	net2#6	net13#5	3.02721e-18	$X=2.65 $Y=-0.863
C856	net1#8	XI18/net2	5.87944e-19	$X=3.997 $Y=-0.4315
C857	net11#2	net1#4	2.70104e-18	$X=3.557 $Y=0.6035
C858	vdd!#22	vdd!#25	2.21889e-18	$X=0.648 $Y=1.37
C859	vdd!#28	net3	4.80642e-18	$X=2.2385 $Y=1.291
C860	CLK#20	net6#7	4.81922e-18	$X=0.6635 $Y=-1.183
C861	net2#15	XI18/net2#5	2.67293e-18	$X=3.731 $Y=-1.298
C862	net4#28	net3#10	1.29329e-18	$X=1.687 $Y=1.1515
C863	net3#14	XI9/net2#5	1.00229e-18	$X=1.3755 $Y=0.5155
C864	gnd!#17	gnd!#1	5.40464e-18	$X=0.989 $Y=0.0905
C865	net6#6	XI9/net2#4	9.37451e-19	$X=1.124 $Y=0.5995
C866	vdd!#16	CLK#11	1.84742e-18	$X=2.361 $Y=-1.3415
C867	XI15/net2#4	net13#3	1.70035e-18	$X=1.9465 $Y=-1.0745
C868	Q#7	Q#8	8.37858e-18	$X=4.856 $Y=-1.313
C869	RST#3	CLK#9	5.68065e-19	$X=0.38 $Y=-0.154
C870	net4#25	net11	3.98392e-18	$X=3.6285 $Y=1.227
C871	net1#13	gnd!#24	1.52496e-18	$X=3.424 $Y=-0.5315
C872	XI18/net2#4	net4#5	8.33231e-19	$X=3.5215 $Y=-0.5855
C873	net1#5	net11	1.9729e-18	$X=3.272 $Y=1.2885
C874	net1#8	gnd!#22	1.01607e-18	$X=3.902 $Y=0.462
C875	vdd!#15	XI18/net2#5	2.37098e-17	$X=3.475 $Y=-1.3265
C876	net6#2	net1#3	8.46099e-19	$X=3.046 $Y=0.892
C877	CLK#5	RST#1	5.59046e-19	$X=0.38 $Y=0.1605
C878	net3#10	net3	1.19897e-18	$X=2.0575 $Y=1.266
C879	net6#9	vdd!#29	9.73728e-19	$X=2.529 $Y=1.515
C880	Q#6	net13#6	1.23023e-17	$X=2.7845 $Y=-0.8565
C881	net11	XI13/net2#4	1.33424e-18	$X=4.0115 $Y=1.069
C882	net1#8	net1#4	2.14383e-18	$X=3.4665 $Y=0.551
C883	XI18/net2#2	gnd!#21	4.23339e-18	$X=4.367 $Y=-0.393
C884	net11#5	gnd!#1	2.28986e-18	$X=4.541 $Y=0.7785
C885	net3#14	gnd!#28	9.78544e-19	$X=1.2135 $Y=0.4595
C886	vdd!#19	net6	7.34995e-19	$X=2.8815 $Y=1.2755
C887	CLK#17	gnd!#20	5.11634e-18	$X=0.274 $Y=0.232
C888	vdd!#9	vdd!#3	8.01378e-18	$X=1.4915 $Y=-1.692
C889	vdd!#9	CLK#20	6.47156e-18	$X=1.3585 $Y=-1.4835
C890	net2#13	vdd!#9	2.15856e-18	$X=1.7965 $Y=-1.5885
C891	net13#2	vdd!#3	1.09663e-18	$X=2.1795 $Y=-0.782
C892	net1#3	net1#2	2.81622e-18	$X=3.485 $Y=0.975
C893	D#2	net3	2.85907e-19	$X=1.9815 $Y=1.264
C894	vdd!#22	net4#13	2.15289e-17	$X=0.4165 $Y=1.344
C895	vdd!#21	CLK#3	1.39123e-18	$X=0.3475 $Y=1.5785
C896	net13#3	CLK#11	4.76745e-18	$X=2.1225 $Y=-1.285
C897	net2#6	net13#6	1.24475e-18	$X=2.4905 $Y=-0.85
C898	XI9/net2#5	CLK#8	3.73616e-18	$X=1.1105 $Y=0.5195
C899	XI9/net2#3	net3	3.31606e-19	$X=1.9545 $Y=1.284
C900	net2#9	gnd!#1	2.69499e-18	$X=4.463 $Y=-0.9495
C901	net4#25	vdd!#33	1.51701e-18	$X=3.4845 $Y=1.288
C902	CLK#20	vdd!#18	2.14119e-18	$X=0.506 $Y=-1.248
C903	XI18/net2#2	net2#12	2.10562e-18	$X=4.094 $Y=-0.4255
C904	Q#7	vdd!#1	3.94358e-18	$X=4.7135 $Y=-1.342
C905	net1#6	vdd!#30	7.18286e-18	$X=2.777 $Y=1.127
C906	net13#5	Q#1	1.25351e-18	$X=2.8545 $Y=-0.649
C907	gnd!#28	CLK#8	3.77133e-18	$X=1.043 $Y=0.496
C908	XI15/net2#5	CLK#11	2.23671e-18	$X=1.9955 $Y=-1.324
C909	net1#13	net13#4	6.86078e-19	$X=3.0115 $Y=-0.5775
C910	net11#4	net3#12	7.13216e-18	$X=4.8005 $Y=1.078
C911	net1#8	net11#3	1.29363e-18	$X=3.531 $Y=0.518
C912	net3#16	XI13/net2#2	3.77357e-18	$X=4.656 $Y=0.4105
C913	gnd!#1	net2	2.27642e-18	$X=4.705 $Y=-0.538
C914	net1#10	net11#3	8.11129e-19	$X=3.302 $Y=0.5325
C915	XI15/net2#4	XI15/net2	6.84776e-19	$X=2.0975 $Y=-0.567
C916	vdd!#28	CLK#1	2.89902e-18	$X=1.8365 $Y=1.352
C917	gnd!#24	XI18/net2#3	1.47627e-17	$X=3.477 $Y=-0.47
C918	vdd!#3	Q#4	1.39612e-18	$X=2.81 $Y=-1.331
C919	net11#2	gnd!#5	1.34543e-18	$X=3.9015 $Y=0.4585
C920	net4#15	CLK#8	1.43419e-18	$X=0.8995 $Y=0.5325
C921	net1#5	vdd!#33	8.07495e-18	$X=3.194 $Y=1.326
C922	Q#2	net4#4	1.57578e-18	$X=3.0695 $Y=-0.9185
C923	net4#28	XI15/net2#3	1.1084e-18	$X=1.605 $Y=-0.445
C924	vdd!#29	vdd!#32	3.05709e-18	$X=3.213 $Y=1.724
C925	XI18/net2#2	net1#12	2.36874e-17	$X=3.977 $Y=-0.429
C926	gnd!#20	gnd!#1	2.00045e-18	$X=0.3255 $Y=0.0095
C927	Q#7	vdd!#2	1.54459e-17	$X=4.56 $Y=-1.6435
C928	net1#8	XI18/net2#3	9.12449e-19	$X=3.492 $Y=-0.317
C929	XI9/net2#4	XI9/net2	6.03208e-19	$X=1.5975 $Y=0.586
C930	XI13/net2#4	vdd!#19	2.87743e-18	$X=4.323 $Y=0.8945
C931	XI9/net2#5	CLK#9	4.65971e-19	$X=0.6945 $Y=0.5455
C932	net4#21	net4#15	1.75184e-18	$X=0.5525 $Y=0.8165
C933	net4#25	net1#5	1.40629e-18	$X=3.164 $Y=1.237
C934	net1#8	Q#1	8.91645e-19	$X=2.85 $Y=-0.4165
C935	net2#6	Q#6	1.21699e-17	$X=2.3885 $Y=-1.022
C936	Q#7	net2#11	2.92368e-18	$X=4.302 $Y=-1.2535
C937	XI13/net2#3	net4#8	1.31168e-18	$X=4.189 $Y=1.1185
C938	gnd!#1	XI9/net2#4	6.09265e-19	$X=1.276 $Y=0.8715
C939	gnd!#28	CLK#9	1.47183e-18	$X=0.622 $Y=0.5205
C940	net1#13	gnd!#1	3.90093e-18	$X=3.6355 $Y=-1.022
C941	CLK#20	vdd!#3	2.66397e-17	$X=1.128 $Y=-0.9985
C942	vdd!#3	Q#3	1.21442e-18	$X=2.7375 $Y=-1.005
C943	net13#5	net4#3	1.83163e-18	$X=3.2515 $Y=-0.85
C944	net13#6	Q#1	3.09571e-18	$X=2.7935 $Y=-0.5965
C945	vdd!#19	net4#13	6.76813e-18	$X=0.542 $Y=1.333
C946	vdd!#17	CLK#14	5.32958e-18	$X=1.5015 $Y=-1.0285
C947	vdd!#18	net6#7	2.15289e-17	$X=0.4065 $Y=-1.3075
C948	net13#3	CLK#12	1.15033e-18	$X=1.8255 $Y=-1.271
C949	net1#8	gnd!#23	4.0477e-18	$X=3.361 $Y=0.4765
C950	vdd!#19	net4#14	5.85456e-18	$X=0.604 $Y=1.062
C951	XI18/net2#3	XI18/net2#2	1.31409e-17	$X=3.7355 $Y=-0.4245
C952	net4#15	CLK#9	6.3284e-18	$X=0.4445 $Y=0.561
C953	XI9/net2#3	CLK#1	2.17857e-18	$X=1.502 $Y=1.344
C954	gnd!#27	RST#1	8.63386e-19	$X=0.807 $Y=-0.5015
C955	gnd!#8	net1#4	2.11437e-18	$X=3.495 $Y=0.474
C956	XI9/net2#4	CLK#2	1.55015e-18	$X=1.1545 $Y=1.271
C957	net2#6	Q#2	2.62691e-18	$X=2.6455 $Y=-0.941
C958	XI15/net2#5	CLK#12	7.78119e-18	$X=1.6155 $Y=-1.312
C959	net4#4	net4#3	3.89683e-18	$X=3.4475 $Y=-0.8885
C960	gnd!#1	net11#2	4.33288e-18	$X=3.731 $Y=0.7785
C961	net4#25	vdd!#30	1.62426e-18	$X=3.03 $Y=1.272
C962	net1#8	gnd!#24	3.87639e-18	$X=3.3335 $Y=-0.262
C963	vdd!#30	vdd!#33	2.4127e-18	$X=3.104 $Y=1.3525
C964	net3#2	net6#3	2.01368e-18	$X=2.579 $Y=0.8125
C965	net13#7	vdd!#15	6.08052e-18	$X=3.159 $Y=-1.3145
C966	Q#7	net1#14	1.56922e-18	$X=4.117 $Y=-1.2685
C967	vdd!#12	vdd!#3	6.63732e-18	$X=0.321 $Y=-1.687
C968	vdd!#3	CLK#11	4.825e-18	$X=2.1695 $Y=-1.3435
C969	net13#2	net2#6	2.49831e-17	$X=2.2345 $Y=-0.883
C970	vdd!#17	CLK#12	5.48168e-18	$X=1.5375 $Y=-1.338
C971	gnd!#30	CLK#9	3.87291e-18	$X=0.376 $Y=0.5275
C972	net1#6	vdd!#29	3.3641e-18	$X=2.7075 $Y=1.2905
C973	net1#10	gnd!#23	4.68421e-18	$X=3.184 $Y=0.51
C974	gnd!#24	XI18/net2#2	5.49056e-18	$X=3.617 $Y=-0.383
C975	net4#25	vdd!#29	2.5614e-18	$X=2.923 $Y=1.5775
C976	net13#2	CLK#13	1.66351e-18	$X=1.7035 $Y=-0.858
C977	net6#6	vdd!#19	3.44484e-18	$X=0.7385 $Y=-0.2555
C978	net4#25	net4#9	6.18279e-18	$X=3.962 $Y=1.0845
C979	XI15/net2#4	gnd!#1	1.0097e-18	$X=1.7715 $Y=-0.8525
C980	net1#9	net1#6	1.41582e-18	$X=2.6285 $Y=1.067
C981	net4#17	gnd!#1	1.52778e-18	$X=3.2925 $Y=-0.8785
C982	net4#23	XI15/net2#4	6.3492e-18	$X=1.978 $Y=-0.8595
C983	net1#8	net1#10	3.20515e-18	$X=3.0095 $Y=0.534
C984	net1#6	net6#2	3.78719e-18	$X=2.8525 $Y=0.8775
C985	XI15/net2#4	CLK#15	8.82061e-19	$X=1.6215 $Y=-0.5855
C986	vdd!#19	net4#15	3.4941e-18	$X=0.534 $Y=0.58
C987	vdd!#19	CLK#1	4.52494e-18	$X=1.6735 $Y=1.3625
C988	XI9/net2#4	CLK#4	3.87332e-19	$X=0.613 $Y=0.9375
C989	gnd!#23	net1#3	5.57284e-18	$X=3.4185 $Y=0.7235
C990	net2#13	net13#7	1.51991e-18	$X=2.822 $Y=-1.285
C991	net6#5	RST#1	3.31483e-18	$X=0.4515 $Y=-0.5255
C992	gnd!#8	net4#5	1.74158e-18	$X=3.4675 $Y=-0.3985
C993	vdd!#3	net6#7	1.06551e-17	$X=0.5415 $Y=-1.2745
C994	vdd!#3	net6#6	9.16658e-18	$X=0.7175 $Y=-0.4595
C995	vdd!#19	vdd!#22	1.6171e-17	$X=0.3545 $Y=1.369
C996	net1#8	gnd!#5	9.16397e-19	$X=3.7105 $Y=0.2465
C997	net6#7	CLK#12	1.42801e-18	$X=1.1755 $Y=-1.3025
C998	XI9/net2#4	CLK#8	8.09263e-19	$X=1.1215 $Y=0.6045
C999	net1#8	net13#4	2.0195e-18	$X=2.946 $Y=-0.3405
C1000	net4#28	net6#6	4.8107e-17	$X=0.744 $Y=-0.1955
C1001	net1#8	gnd!#1	2.22184e-17	$X=3.121 $Y=0.481
C1002	XI9/net2#3	CLK#6	4.66544e-18	$X=1.1005 $Y=1.304
C1003	gnd!#28	XI9/net2#5	1.47627e-17	$X=1.077 $Y=0.489
C1004	CLK#17	vdd!#19	2.4407e-17	$X=0.267 $Y=1.027
C1005	Q#7	net2#3	2.97925e-18	$X=4.6865 $Y=-1.0425
C1006	net6#9	XI9/net2	4.52482e-19	$X=1.7055 $Y=0.541
C1007	net3#9	net3#4	1.27419e-18	$X=2.117 $Y=0.5225
C1008	net4#25	net1#3	3.10582e-18	$X=3.4755 $Y=1.0325
C1009	XI13/net2#2	net11#5	6.07913e-18	$X=4.64 $Y=0.5035
C1010	vdd!#25	CLK#6	2.97613e-18	$X=1.0525 $Y=1.32
C1011	net2#15	net4#4	1.03887e-18	$X=3.503 $Y=-0.9455
C1012	vdd!#16	vdd!#15	2.24589e-18	$X=3.048 $Y=-1.351
C1013	gnd!#1	net6#4	2.41514e-18	$X=2.886 $Y=0.5115
C1014	vdd!#30	net1#5	2.15289e-17	$X=2.89 $Y=1.3155
C1015	CLK#20	RST#2	2.37681e-18	$X=0.473 $Y=-0.9385
C1016	gnd!#29	RST#1	5.05617e-18	$X=0.376 $Y=-0.5085
C1017	net13#2	XI15/net2	1.15801e-18	$X=2.168 $Y=-0.544
C1018	net1#8	XI11/net3	3.76216e-18	$X=2.8735 $Y=0.487
C1019	net2#10	Q#9	1.20166e-18	$X=4.467 $Y=-0.721
C1020	net3#14	XI9/net2#4	4.66306e-19	$X=1.545 $Y=0.7785
C1021	net13#6	gnd!#1	4.86241e-18	$X=2.749 $Y=-0.725
C1022	CLK#17	vdd!#3	1.05674e-17	$X=0.2435 $Y=0.886
C1023	vdd!#3	CLK#12	3.30025e-18	$X=1.5855 $Y=-1.3285
C1024	net4#10	net4#9	1.07438e-17	$X=4.0995 $Y=0.9695
C1025	CLK	XI9/net2#4	2.42617e-17	$X=0.907 $Y=0.9215
C1026	net4	net4#9	4.06632e-17	$X=4.054 $Y=0.5015
C1027	XI9/net2#4	CLK#7	4.4976e-18	$X=1.131 $Y=0.8965
C1028	XI18/net2#2	net4#10	3.56001e-19	$X=4.0815 $Y=0.4225
C1029	net6#9	CLK#7	1.5786e-18	$X=1.262 $Y=0.8865
C1030	CLK#4	CLK#7	3.68462e-18	$X=0.6095 $Y=0.941
C1031	CLK#7	vdd!	6.96638e-18	$X=1.0415 $Y=0.9085
C1032	CLK	vdd!#24	2.11556e-18	$X=0.728 $Y=1.228
C1033	net6#9	CLK	3.17967e-18	$X=0.9645 $Y=0.921
C1034	gnd!#8	gnd!	1.22296e-17	$X=3.4135 $Y=0.094
C1035	CLK#7	CLK#2	9.77239e-19	$X=1.0585 $Y=1.2205
C1036	gnd!#17	gnd!	1.19529e-17	$X=0.9865 $Y=0.0895
C1037	gnd!#26	gnd!	1.24082e-18	$X=2.171 $Y=0.483
C1038	net4#28	CLK	3.27612e-18	$X=0.636 $Y=0.848
C1039	net4#14	CLK#7	3.7763e-18	$X=0.808 $Y=0.9825
C1040	net4#10	vdd!	5.52674e-18	$X=4.141 $Y=0.884
C1041	CLK	vdd!	6.79688e-18	$X=0.5905 $Y=0.9595
C1042	gnd!#23	gnd!	2.25314e-18	$X=3.411 $Y=0.47
C1043	gnd!#30	gnd!	2.17317e-18	$X=0.324 $Y=0.47
C1044	CLK	net4#14	7.70805e-18	$X=0.5855 $Y=1.014
C1045	net6#6	CLK	2.64445e-18	$X=0.5975 $Y=0.6885
C1046	gnd!#24	gnd!	1.61288e-18	$X=3.376 $Y=-0.435
C1047	net4#25	net4	2.15765e-18	$X=3.965 $Y=0.1245
C1048	gnd!	gnd!#1	4.10314e-17	$X=2.5875 $Y=-0.051
C1049	gnd!#29	gnd!	1.62924e-18	$X=0.324 $Y=-0.4525
C1050	CLK#17	CLK	1.16998e-17	$X=0.484 $Y=0.967
C1051	CLK	vdd!#25	5.95918e-18	$X=0.772 $Y=1.154
C1052	net4	net4#10	6.31778e-18	$X=4.113 $Y=0.4695
C1053	gnd!#1	CLK	2.93869e-18	$X=0.606 $Y=0.9515
C1054	gnd!#21	gnd!	4.5685e-18	$X=4.606 $Y=-0.4525
C1055	gnd!#11	gnd!	5.41988e-18	$X=2.709 $Y=-0.0775
C1056	net4	XI13/net2#4	2.42617e-17	$X=4.214 $Y=0.327
C1057	gnd!#20	gnd!	7.60937e-18	$X=0.322 $Y=0.0085
C1058	net4	vdd!	2.23442e-18	$X=4.0665 $Y=-0.2125
C1059	gnd!#3	gnd!	9.00157e-18	$X=4.5945 $Y=-0.0775
C1060	vdd!#19	CLK	1.23662e-17	$X=0.6205 $Y=0.9715
C1061	CLK	CLK#2	1.25875e-18	$X=0.8615 $Y=1.287
C1062	gnd!#5	net4	2.10669e-18	$X=4.0695 $Y=-0.0985
C1063	gnd!#28	CLK	4.40686e-18	$X=0.823 $Y=0.6575
C1064	gnd!#22	net4	4.40686e-18	$X=4.0745 $Y=0.202
C1065	CLK	CLK#4	1.50137e-18	$X=0.458 $Y=0.9565
C1066	gnd!#13	gnd!	7.807e-18	$X=2.1695 $Y=0.097
C1067	CLK	CLK#7	7.14583e-18	$X=0.8465 $Y=0.9305
C1068	XI13/net2#4	net4#10	3.3418e-18	$X=4.2245 $Y=0.882
C1069	gnd!#27	gnd!	4.15921e-18	$X=1.484 $Y=-0.435
C1070	net11#5	net4#10	1.23098e-18	$X=4.266 $Y=0.856
C1071	gnd!#5	gnd!	6.5661e-18	$X=4.0585 $Y=0.089
C1072	gnd!#22	gnd!	2.58428e-18	$X=4.0735 $Y=0.453
C1073	gnd!#25	gnd!	2.13745e-18	$X=2.714 $Y=-0.4525
C1074	net11#2	net4	8.32722e-18	$X=3.9385 $Y=0.188
C1075	net1#2	net4#10	2.92035e-18	$X=3.7275 $Y=0.931
C1076	gnd!#15	gnd!	7.11582e-18	$X=1.4875 $Y=-0.073
C1077	net11#5	net4	7.32376e-19	$X=4.2695 $Y=0.193
C1078	gnd!#28	gnd!	2.43781e-18	$X=0.986 $Y=0.453
C1079	net11#2	net4#10	4.56945e-18	$X=4.0275 $Y=0.8565
C1080	CLK#4	CLK#6	3.25959e-19	$X=0.729 $Y=1.12
C1081	CLK#9	CLK#7	4.70132e-19	$X=0.627 $Y=0.6785
C1082	CLK#2	CLK#1	5.80811e-19	$X=1.414 $Y=1.44
C1083	CLK#17	CLK#9	6.76078e-19	$X=0.3825 $Y=0.608
C1084	RST#2	CLK#12	1.03327e-19	$X=0.773 $Y=-1.056
C1085	RST#1	CLK#13	1.41953e-19	$X=1.0165 $Y=-0.718
C1086	gnd!#30	CLK#8	5.13188e-19	$X=0.816 $Y=0.5025
C1087	gnd!#20	CLK	5.43143e-19	$X=0.443 $Y=0.4615
C1088	CLK#17	gnd!#17	6.73841e-19	$X=0.746 $Y=0.342
C1089	gnd!#28	CLK#7	7.01574e-19	$X=1.0085 $Y=0.6675
C1090	gnd!#17	CLK	7.31119e-19	$X=0.765 $Y=0.564
C1091	CLK#17	gnd!#28	8.30909e-19	$X=0.8325 $Y=0.551
C1092	CLK#17	vdd!	3.24876e-19	$X=0.1545 $Y=0.992
C1093	vdd!#30	CLK#1	3.88979e-19	$X=2.0465 $Y=1.3535
C1094	vdd!#17	CLK#20	3.98021e-19	$X=1.3755 $Y=-1.2585
C1095	vdd!#22	CLK#6	4.02554e-19	$X=0.8865 $Y=1.3165
C1096	vdd!#15	CLK#11	4.04894e-19	$X=2.5985 $Y=-1.3465
C1097	vdd!#28	CLK#6	4.19421e-19	$X=1.346 $Y=1.3095
C1098	vdd!#12	CLK#12	4.78115e-19	$X=0.7545 $Y=-1.5595
C1099	vdd!#7	CLK#11	4.81643e-19	$X=2.473 $Y=-1.536
C1100	vdd!#19	CLK#7	5.51677e-19	$X=1.058 $Y=0.9185
C1101	CLK	vdd!#21	5.84312e-19	$X=0.3925 $Y=1.485
C1102	vdd!#29	CLK#1	5.94455e-19	$X=1.9675 $Y=1.4925
C1103	vdd!#25	CLK#7	6.51067e-19	$X=1.0165 $Y=1.0955
C1104	vdd!#16	CLK#12	6.66755e-19	$X=2.0345 $Y=-1.3325
C1105	vdd!#18	CLK#12	6.75995e-19	$X=1.0685 $Y=-1.3325
C1106	vdd!#25	CLK#1	6.82924e-19	$X=1.431 $Y=1.3655
C1107	CLK#17	vdd!#21	7.54698e-19	$X=0.291 $Y=1.6205
C1108	vdd!#17	CLK#11	7.61121e-19	$X=1.922 $Y=-1.3465
C1109	net6#6	CLK#14	3.68617e-19	$X=1.419 $Y=-0.843
C1110	net6#7	CLK#13	4.2628e-19	$X=1.341 $Y=-0.968
C1111	net6#9	CLK#2	5.03226e-19	$X=1.299 $Y=1.4075
C1112	net6#5	CLK#15	5.5944e-19	$X=1.168 $Y=-0.501
C1113	net6#6	CLK#2	6.0543e-19	$X=1.002 $Y=1.2255
C1114	net6#9	CLK#1	6.19106e-19	$X=1.757 $Y=1.2765
C1115	net6#6	CLK#8	6.43042e-19	$X=1.04 $Y=0.4435
C1116	net13	CLK#15	2.84195e-19	$X=1.7635 $Y=-0.494
C1117	net13#7	CLK#11	4.26736e-19	$X=2.4105 $Y=-1.316
C1118	net13#3	CLK#13	4.4017e-19	$X=1.7365 $Y=-0.992
C1119	Q#6	gnd!#11	5.86348e-19	$X=2.754 $Y=-0.356
C1120	net4#28	CLK#7	4.4698e-19	$X=1.03 $Y=0.826
C1121	net4#28	CLK#6	4.62556e-19	$X=1.069 $Y=1.235
C1122	net4#15	CLK#4	4.97607e-19	$X=0.442 $Y=0.835
C1123	net4#21	CLK#4	5.45297e-19	$X=0.467 $Y=0.9935
C1124	net4#23	CLK#13	6.39533e-19	$X=1.673 $Y=-0.881
C1125	net4#15	CLK#7	8.43008e-19	$X=0.779 $Y=0.739
C1126	net4#13	CLK#6	8.62721e-19	$X=0.924 $Y=1.3075
C1127	XI9/net2#2	CLK#9	1.53041e-19	$X=0.734 $Y=0.4935
C1128	XI9/net2#4	CLK#9	1.70882e-19	$X=0.633 $Y=0.6425
C1129	XI9/net2#3	CLK#7	1.90549e-19	$X=1.093 $Y=1.0665
C1130	CLK#17	XI9/net2#4	2.00446e-19	$X=0.9685 $Y=0.909
C1131	XI9/net2#2	CLK#2	2.80483e-19	$X=1.297 $Y=1.0175
C1132	XI15/net2#5	CLK#13	2.59666e-19	$X=1.5995 $Y=-0.98
C1133	net13#2	Q#1	1.58773e-19	$X=2.668 $Y=-0.5905
C1134	net13	Q#1	2.31921e-19	$X=2.512 $Y=-0.518
C1135	Q#6	net13#5	2.35957e-19	$X=2.914 $Y=-0.873
C1136	net13#2	Q#2	2.40966e-19	$X=2.681 $Y=-0.9005
C1137	net13#3	Q#4	2.77043e-19	$X=2.5605 $Y=-1.2915
C1138	gnd!#1	net6#3	3.68338e-19	$X=2.8015 $Y=0.7875
C1139	Q#3	net4#3	2.61541e-19	$X=3.165 $Y=-0.9325
C1140	Q#2	net4#2	3.28711e-19	$X=3.018 $Y=-1.056
C1141	Q#8	net4	4.13169e-19	$X=4.4475 $Y=-0.7735
C1142	Q#1	net4#3	4.27389e-19	$X=3.157 $Y=-0.718
C1143	net4#23	Q#3	5.09869e-19	$X=2.7415 $Y=-0.985
C1144	Q#6	net4#4	5.83529e-19	$X=3.3515 $Y=-0.9465
C1145	net4#23	Q#2	6.1676e-19	$X=2.8075 $Y=-0.9295
C1146	vdd!#32	vdd!#19	1.35245e-18	$X=3.401 $Y=1.7055
C1147	vdd!#25	vdd!	1.70135e-18	$X=0.9795 $Y=1.377
C1148	vdd!#7	vdd!#3	1.74092e-18	$X=2.708 $Y=-1.687
C1149	net2#13	Q#3	2.81087e-19	$X=2.721 $Y=-1.0435
C1150	net2#7	Q#4	5.27961e-19	$X=2.5895 $Y=-1.2995
C1151	net2#11	Q#8	5.73206e-19	$X=4.4145 $Y=-1.2645
C1152	net1#8	gnd!#26	6.71497e-19	$X=2.355 $Y=0.487
C1153	gnd!#1	net1#6	7.70536e-19	$X=2.767 $Y=0.968
C1154	net1#6	vdd!#19	4.50807e-19	$X=2.7615 $Y=0.9845
C1155	net1#14	vdd!	7.44585e-19	$X=3.969 $Y=-1.2575
C1156	net4#17	gnd!#24	3.51349e-19	$X=3.3175 $Y=-0.7585
C1157	net4#28	gnd!#30	4.36237e-19	$X=0.3735 $Y=0.4395
C1158	net4#28	gnd!#29	4.36237e-19	$X=0.3735 $Y=-0.3985
C1159	gnd!#22	net4#10	4.7549e-19	$X=4.1105 $Y=0.67
C1160	gnd!#25	net4#5	5.07905e-19	$X=3.216 $Y=-0.4835
C1161	net4#17	gnd!#8	5.31118e-19	$X=3.3105 $Y=-0.7565
C1162	net4#23	gnd!#8	5.32871e-19	$X=3.224 $Y=-0.188
C1163	net4#25	gnd!#8	6.71264e-19	$X=3.513 $Y=0.4505
C1164	gnd!#23	net4#11	7.21369e-19	$X=3.916 $Y=0.5025
C1165	net4#23	gnd!#25	7.62896e-19	$X=2.7205 $Y=-0.5115
C1166	net4#25	gnd!#1	7.97892e-19	$X=3.6485 $Y=1.058
C1167	net4#25	gnd!#22	8.0124e-19	$X=4.008 $Y=0.5665
C1168	gnd!#5	net4#9	8.99891e-19	$X=4.054 $Y=0.758
C1169	net4#23	gnd!#27	9.12286e-19	$X=1.659 $Y=-0.4955
C1170	gnd!#1	net3#6	4.74895e-19	$X=1.948 $Y=0.785
C1171	net1#8	net6#2	4.76211e-19	$X=2.9125 $Y=0.802
C1172	net1#8	net6#4	6.53744e-19	$X=2.9085 $Y=0.511
C1173	net4#21	vdd!#24	2.91594e-19	$X=0.7175 $Y=1.2825
C1174	vdd!#7	net4#2	3.24637e-19	$X=3.0055 $Y=-1.547
C1175	vdd!#32	net4#7	4.59949e-19	$X=3.698 $Y=1.5855
C1176	net4#13	vdd!	4.91867e-19	$X=0.5095 $Y=1.327
C1177	net4	vdd!#35	5.57455e-19	$X=4.0705 $Y=0.7225
C1178	vdd!#1	net4#2	6.05855e-19	$X=3.935 $Y=-1.3325
C1179	vdd!#5	net4#4	6.41877e-19	$X=3.401 $Y=-1.105
C1180	vdd!#15	net4	6.92785e-19	$X=3.729 $Y=-0.775
C1181	vdd!#16	net4#2	7.96914e-19	$X=3.17 $Y=-1.3325
C1182	vdd!#2	net4	7.98446e-19	$X=4.215 $Y=-0.924
C1183	vdd!#33	net4#7	7.99118e-19	$X=3.8895 $Y=1.3775
C1184	vdd!#36	net4#6	8.01911e-19	$X=4.522 $Y=1.3655
C1185	net4#23	vdd!#17	9.11865e-19	$X=1.757 $Y=-1.249
C1186	gnd!#26	XI9/net2	3.11563e-19	$X=1.7935 $Y=0.515
C1187	vdd!#33	net3	2.63168e-19	$X=2.6015 $Y=1.299
C1188	net3#14	vdd!#30	3.92018e-19	$X=2.683 $Y=1.1185
C1189	net3#7	vdd!#19	4.79179e-19	$X=1.7745 $Y=0.907
C1190	gnd!#24	XI15/net2#2	2.0383e-19	$X=2.875 $Y=-0.383
C1191	net2#13	vdd!#5	5.81926e-19	$X=3.1585 $Y=-1.592
C1192	net1#7	net1#4	2.85707e-19	$X=3.2445 $Y=0.671
C1193	net1#8	net1#12	4.68791e-19	$X=3.7935 $Y=-0.3105
C1194	net1#13	net1#12	5.83605e-19	$X=3.9165 $Y=-0.617
C1195	net1#6	net1#2	7.88695e-19	$X=3.292 $Y=0.961
C1196	net3#3	net6#2	1.90431e-19	$X=2.646 $Y=0.827
C1197	net3#9	net6#4	1.94945e-19	$X=2.4545 $Y=0.5205
C1198	net3#6	net6#2	2.10895e-19	$X=2.595 $Y=0.823
C1199	net3#3	net6#3	2.65991e-19	$X=2.635 $Y=0.793
C1200	vdd!#19	XI9/net2	2.18431e-19	$X=1.6695 $Y=0.5295
C1201	net4#23	net13#7	3.4386e-19	$X=2.8735 $Y=-1.168
C1202	net13#5	net4#4	4.44985e-19	$X=3.1835 $Y=-0.852
C1203	net1#10	net11#2	4.09091e-19	$X=3.186 $Y=0.6075
C1204	vdd!#3	XI15/net2	2.18431e-19	$X=2.1675 $Y=-0.5095
C1205	net1#3	net4#9	1.96715e-19	$X=3.717 $Y=1.05
C1206	net1#8	net4#5	2.56868e-19	$X=3.4395 $Y=-0.391
C1207	net1	net4#8	2.98133e-19	$X=3.974 $Y=1.169
C1208	net4#5	net1#3	3.47824e-19	$X=3.4605 $Y=-0.034
C1209	net1#12	net4#5	3.66276e-19	$X=3.6315 $Y=-0.507
C1210	net1#8	net4#10	3.7428e-19	$X=3.953 $Y=0.8105
C1211	net1#4	net4#10	4.70132e-19	$X=3.7455 $Y=0.68
C1212	net4#5	net1#4	4.86317e-19	$X=3.4935 $Y=0.002
C1213	net1#14	net4#2	4.91029e-19	$X=3.7615 $Y=-1.286
C1214	net1#13	net4#5	5.25937e-19	$X=3.4935 $Y=-0.5475
C1215	net4	net1#2	6.6945e-19	$X=3.645 $Y=0.675
C1216	net1#2	net4#8	7.08197e-19	$X=3.959 $Y=1.0465
C1217	net4#25	net1#9	7.65956e-19	$X=2.8025 $Y=1.19
C1218	net4#25	net1#2	7.73046e-19	$X=3.528 $Y=0.9685
C1219	net1#6	net3	2.19432e-19	$X=2.449 $Y=1.164
C1220	net1#7	net3#2	3.93146e-19	$X=2.6075 $Y=0.813
C1221	net1#10	net3#4	4.83486e-19	$X=2.501 $Y=0.525
C1222	net1#5	net3	5.46718e-19	$X=2.4835 $Y=1.278
C1223	net3#14	net1#6	5.94237e-19	$X=2.6905 $Y=0.876
C1224	net3#3	net1#6	6.1204e-19	$X=2.437 $Y=0.88
C1225	net11#6	net4#11	2.33706e-19	$X=4.3625 $Y=0.513
C1226	net11#2	net4#8	2.76509e-19	$X=4.1365 $Y=1.0625
C1227	net11	net4#6	3.35314e-19	$X=4.385 $Y=1.335
C1228	net11#5	net4#7	3.93492e-19	$X=4.294 $Y=1.206
C1229	net1#13	net2#2	4.3672e-19	$X=4.621 $Y=-0.946
C1230	net1#13	net2#5	4.759e-19	$X=2.509 $Y=-0.6165
C1231	net1#12	net2	4.87157e-19	$X=4.4615 $Y=-0.5345
C1232	net1#13	net2#9	4.99888e-19	$X=4.3415 $Y=-0.971
C1233	net1#8	net2#5	6.72129e-19	$X=2.447 $Y=-0.3105
C1234	net4#23	net4#3	7.17951e-19	$X=3.4185 $Y=-0.881
C1235	net4#17	net4#3	8.47362e-19	$X=3.369 $Y=-0.8815
C1236	net4#28	net4#14	9.8332e-19	$X=0.6175 $Y=0.9595
C1237	net3#12	net4#8	2.00734e-19	$X=4.333 $Y=1.0595
C1238	net4#28	net3#8	2.16887e-19	$X=1.6845 $Y=0.488
C1239	net3#16	net4#8	2.43488e-19	$X=4.1945 $Y=1.073
C1240	net3#11	net4#7	2.56628e-19	$X=4.536 $Y=1.321
C1241	net4#25	net3#11	3.3718e-19	$X=4.664 $Y=1.232
C1242	net3#12	net4#10	3.77856e-19	$X=4.5375 $Y=0.915
C1243	net3#16	net4#9	6.06577e-19	$X=4.149 $Y=1.0065
C1244	net3#16	net4	6.37857e-19	$X=4.185 $Y=0.011
C1245	net2#6	net4#2	1.26247e-19	$X=2.8785 $Y=-1.14
C1246	net2#5	net4#5	2.07794e-19	$X=3.095 $Y=-0.507
C1247	net2#6	net4#4	2.39255e-19	$X=2.989 $Y=-0.9165
C1248	net4	net2#2	3.047e-19	$X=4.557 $Y=-0.762
C1249	net2#11	net4#2	3.42894e-19	$X=3.847 $Y=-1.2775
C1250	net4#3	net2#2	3.59877e-19	$X=4.1085 $Y=-0.91
C1251	net2#13	net4#4	3.8141e-19	$X=3.312 $Y=-0.9485
C1252	net4#3	net2#3	3.927e-19	$X=3.971 $Y=-0.933
C1253	net2#12	net4#11	4.1395e-19	$X=4.1725 $Y=0.169
C1254	net2#10	net4#3	5.12619e-19	$X=3.7265 $Y=-0.882
C1255	net2#13	net4#17	5.75423e-19	$X=3.245 $Y=-0.9125
C1256	net3#6	net3#4	3.43761e-19	$X=2.178 $Y=0.592
C1257	net3#7	net3#2	6.03021e-19	$X=2.0825 $Y=0.865
C1258	net1#8	XI18/net2#4	1.87494e-19	$X=3.5165 $Y=-0.4825
C1259	net3#14	XI9/net2	1.76125e-19	$X=1.7135 $Y=0.522
C1260	net3#6	XI9/net2	1.97249e-19	$X=1.7325 $Y=0.5875
C1261	XI9/net2#4	net3#2	2.11102e-19	$X=2.036 $Y=0.8525
C1262	net2#10	net2#3	5.5798e-19	$X=4.436 $Y=-0.9485
C1263	net11#3	XI13/net2	2.1433e-19	$X=4.431 $Y=0.5245
C1264	XI18/net2#5	net4#3	2.49279e-19	$X=3.4995 $Y=-0.98
C1265	XI18/net2#2	net4#9	2.64655e-19	$X=4.018 $Y=0.445
C1266	XI18/net2#4	net2#2	2.93121e-19	$X=4.4645 $Y=-0.918
C1267	CLK	gnd!	1.96162e-18	$X=0.603 $Y=0.9525
C1268	D	gnd!	8.59191e-18	$X=1.5675 $Y=0.894
C1269	Q	gnd!	6.35845e-18	$X=4.8045 $Y=-0.9475
C1270	RST	gnd!	1.64111e-19	$X=0.2485 $Y=-0.9995
C1271	vdd!	gnd!	6.14065e-19	$X=2.641 $Y=-0.1285
C1272	net4	gnd!	1.97646e-18	$X=4.057 $Y=-0.212
C1273	net4#6	gnd!	8.17649e-19	$X=4.7585 $Y=1.3535
C1274	net2#4	gnd!	5.13482e-19	$X=4.707 $Y=-1.326
C1275	net4#7	gnd!	3.36256e-19	$X=4.17 $Y=1.3795
C1276	net4	gnd!	1.28211e-18	$X=4.057 $Y=-0.212
C1277	net1	gnd!	7.67393e-19	$X=3.5095 $Y=1.3445
C1278	net4#2	gnd!	4.13356e-19	$X=3.473 $Y=-1.3185
C1279	net6	gnd!	1.3832e-18	$X=2.886 $Y=1.268
C1280	Q#4	gnd!	3.85801e-18	$X=2.8115 $Y=-1.326
C1281	net3	gnd!	3.76304e-18	$X=2.268 $Y=1.268
C1282	CLK#11	gnd!	8.49462e-18	$X=2.1685 $Y=-1.3355
C1283	CLK#1	gnd!	1.08213e-17	$X=1.6705 $Y=1.354
C1284	CLK#12	gnd!	2.15018e-18	$X=1.582 $Y=-1.3185
C1285	CLK#6	gnd!	1.47944e-18	$X=1.0805 $Y=1.2975
C1286	CLK#3	gnd!	4.46291e-19	$X=0.4215 $Y=1.3595
C1287	RST#4	gnd!	5.36194e-19	$X=0.417 $Y=-1.326
C1288	XI13/net2	gnd!	6.95442e-18	$X=4.7635 $Y=0.524
C1289	net2	gnd!	1.87085e-17	$X=4.707 $Y=-0.539
C1290	net4#11	gnd!	9.92686e-18	$X=4.1735 $Y=0.5165
C1291	XI18/net2	gnd!	6.08399e-18	$X=4.0645 $Y=-0.505
C1292	net1#4	gnd!	9.03707e-18	$X=3.5095 $Y=0.5575
C1293	net4#5	gnd!	7.94648e-18	$X=3.475 $Y=-0.498
C1294	net6#4	gnd!	7.18202e-18	$X=2.8865 $Y=0.5115
C1295	Q#1	gnd!	1.51324e-17	$X=2.8115 $Y=-0.539
C1296	net3#4	gnd!	6.95245e-18	$X=2.2675 $Y=0.5155
C1297	XI15/net2	gnd!	9.24063e-18	$X=2.1675 $Y=-0.505
C1298	XI9/net2	gnd!	4.99055e-18	$X=1.668 $Y=0.524
C1299	CLK#15	gnd!	1.09765e-17	$X=1.579 $Y=-0.498
C1300	CLK#8	gnd!	1.07211e-17	$X=1.08 $Y=0.5165
C1301	CLK#9	gnd!	1.16377e-17	$X=0.417 $Y=0.5575
C1302	RST#1	gnd!	1.27162e-17	$X=0.417 $Y=-0.539
C1303	XI13/net2#2	gnd!	2.66435e-17	$X=4.6745 $Y=0.3165
C1304	net2#3	gnd!	5.74904e-19	$X=4.6335 $Y=-0.9975
C1305	net4#9	gnd!	4.74301e-19	$X=4.036 $Y=1.0775
C1306	XI18/net2#2	gnd!	2.36622e-17	$X=3.979 $Y=-0.299
C1307	net1#3	gnd!	5.46932e-19	$X=3.42 $Y=1.0135
C1308	net4#4	gnd!	1.19537e-18	$X=3.4085 $Y=-0.893
C1309	net6#3	gnd!	7.98671e-18	$X=2.8015 $Y=0.788
C1310	Q#3	gnd!	9.78348e-19	$X=2.739 $Y=-0.9975
C1311	net3#3	gnd!	9.11708e-18	$X=2.172 $Y=0.8005
C1312	XI15/net2#2	gnd!	2.57241e-17	$X=2.0915 $Y=-0.299
C1313	XI9/net2#2	gnd!	1.93542e-17	$X=1.5945 $Y=0.3165
C1314	CLK#14	gnd!	1.83602e-18	$X=1.514 $Y=-0.893
C1315	CLK#5	gnd!	3.99454e-19	$X=0.3475 $Y=1.016
C1316	RST#3	gnd!	7.10329e-20	$X=0.3495 $Y=-0.998
C1317	net3#16	gnd!	2.47052e-17	$X=4.513 $Y=0.692
C1318	net2#15	gnd!	2.94171e-19	$X=4.1435 $Y=-1.2865
C1319	net4#25	gnd!	1.02021e-18	$X=3.6565 $Y=1.0615
C1320	net4#23	gnd!	8.05517e-18	$X=2.7565 $Y=-0.84
C1321	net2#13	gnd!	9.44898e-18	$X=2.5975 $Y=-1.311
C1322	net3#14	gnd!	1.76763e-17	$X=2.3835 $Y=0.467
C1323	net4#21	gnd!	1.61353e-18	$X=0.6085 $Y=1.078
C1324	Q#7	gnd!	5.32916e-19	$X=4.9605 $Y=-1.3105
C1325	net3#12	gnd!	6.94988e-18	$X=4.9005 $Y=0.94
C1326	net11#5	gnd!	8.69858e-18	$X=4.548 $Y=0.779
C1327	net2#9	gnd!	4.41693e-18	$X=4.466 $Y=-0.9515
C1328	net1#13	gnd!	7.16073e-18	$X=3.645 $Y=-1.032
C1329	net11#2	gnd!	1.28258e-17	$X=3.7355 $Y=0.7795
C1330	net4#17	gnd!	2.64269e-18	$X=3.293 $Y=-0.879
C1331	net1#8	gnd!	1.88169e-17	$X=3.1255 $Y=0.4815
C1332	net13#6	gnd!	7.95954e-18	$X=2.75 $Y=-0.727
C1333	net6#9	gnd!	1.61725e-17	$X=2.2995 $Y=0.7645
C1334	Q#6	gnd!	7.87132e-18	$X=2.905 $Y=-1.303
C1335	net2#6	gnd!	4.3549e-18	$X=2.271 $Y=-0.9485
C1336	net13#2	gnd!	7.3651e-18	$X=2.178 $Y=-0.7595
C1337	net3#9	gnd!	3.82465e-18	$X=1.9455 $Y=0.528
C1338	CLK#20	gnd!	1.4416e-17	$X=1.101 $Y=-0.9485
C1339	net4#14	gnd!	1.38675e-18	$X=0.591 $Y=1.049
C1340	net6#6	gnd!	3.38669e-17	$X=0.675 $Y=-0.3865
C1341	CLK#17	gnd!	2.41027e-17	$X=0.2005 $Y=0.971
C1342	net3#11	gnd!	7.59342e-20	$X=4.8555 $Y=1.257
C1343	vdd!#1	gnd!	5.33003e-19	$X=4.6005 $Y=-1.3355
C1344	XI13/net2#3	gnd!	6.40042e-19	$X=4.2625 $Y=1.303
C1345	net2#11	gnd!	4.17525e-19	$X=4.158 $Y=-1.233
C1346	vdd!#36	gnd!	4.18101e-19	$X=4.069 $Y=1.3665
C1347	net1#14	gnd!	2.72841e-19	$X=3.9645 $Y=-1.254
C1348	net11	gnd!	6.77109e-19	$X=3.6015 $Y=1.2745
C1349	XI18/net2#5	gnd!	5.00185e-18	$X=3.5675 $Y=-1.2855
C1350	vdd!#33	gnd!	2.62024e-19	$X=3.409 $Y=1.353
C1351	vdd!#15	gnd!	3.24894e-19	$X=3.374 $Y=-1.349
C1352	net1#5	gnd!	4.5717e-19	$X=2.982 $Y=1.281
C1353	net13#7	gnd!	3.20532e-18	$X=2.907 $Y=-1.257
C1354	vdd!#30	gnd!	1.57711e-20	$X=2.788 $Y=1.3315
C1355	vdd!#16	gnd!	2.23551e-19	$X=2.7135 $Y=-1.3355
C1356	net1#9	gnd!	1.027e-18	$X=2.367 $Y=1.2295
C1357	net2#7	gnd!	2.51221e-18	$X=2.2655 $Y=-1.253
C1358	vdd!#28	gnd!	4.25607e-19	$X=2.1725 $Y=1.327
C1359	net13#3	gnd!	2.18418e-19	$X=2.072 $Y=-1.2135
C1360	net3#10	gnd!	3.10384e-18	$X=1.768 $Y=1.251
C1361	XI15/net2#5	gnd!	6.14303e-18	$X=1.681 $Y=-1.2855
C1362	D#2	gnd!	6.50001e-18	$X=1.5735 $Y=1.2465
C1363	vdd!#17	gnd!	1.21898e-19	$X=1.4875 $Y=-1.349
C1364	XI9/net2#3	gnd!	9.92635e-20	$X=1.185 $Y=1.303
C1365	vdd!#25	gnd!	3.20578e-19	$X=0.991 $Y=1.3665
C1366	net4#13	gnd!	7.59737e-20	$X=0.523 $Y=1.3175
C1367	vdd!#22	gnd!	5.22765e-20	$X=0.3305 $Y=1.353
C1368	vdd!#19	gnd!	9.03139e-17	$X=2.381 $Y=1.2015
C1369	vdd!#3	gnd!	8.81993e-17	$X=2.53 $Y=-1.2345
C1370	net3#13	gnd!	6.91346e-18	$X=4.855 $Y=0.524
C1371	Q#9	gnd!	1.55974e-17	$X=4.7995 $Y=-0.5365
C1372	net11#6	gnd!	1.15804e-18	$X=4.662 $Y=0.5035
C1373	XI13/net2#5	gnd!	2.31841e-18	$X=4.2675 $Y=0.52
C1374	net2#12	gnd!	3.50748e-18	$X=4.158 $Y=-0.506
C1375	net1#12	gnd!	3.47544e-18	$X=3.963 $Y=-0.523
C1376	net11#3	gnd!	1.34501e-18	$X=3.606 $Y=0.521
C1377	XI18/net2#3	gnd!	5.20881e-18	$X=3.5705 $Y=-0.502
C1378	net1#10	gnd!	1.30415e-18	$X=2.983 $Y=0.54
C1379	net13#4	gnd!	3.5417e-18	$X=2.9085 $Y=-0.5025
C1380	XI11/net3	gnd!	8.54651e-18	$X=2.7885 $Y=0.4815
C1381	XI11/net3#2	gnd!	1.00033e-17	$X=2.366 $Y=0.4815
C1382	net2#5	gnd!	7.39786e-18	$X=2.266 $Y=-0.5225
C1383	net13	gnd!	1.27619e-18	$X=2.0715 $Y=-0.485
C1384	net3#8	gnd!	2.53909e-18	$X=1.768 $Y=0.524
C1385	XI15/net2#3	gnd!	5.34005e-18	$X=1.678 $Y=-0.502
C1386	D#1	gnd!	4.61801e-18	$X=1.574 $Y=0.527
C1387	XI9/net2#5	gnd!	2.10525e-18	$X=1.1805 $Y=0.52
C1388	net4#15	gnd!	3.24674e-18	$X=0.5195 $Y=0.5615
C1389	net6#5	gnd!	1.37669e-18	$X=0.5165 $Y=-0.503
C1390	XI9/net2#4	gnd!	7.54535e-18	$X=1.2735 $Y=0.8725
C1391	XI15/net2#4	gnd!	1.23474e-17	$X=1.7705 $Y=-0.855
C1392	net3#6	gnd!	4.74587e-18	$X=1.9475 $Y=0.7855
C1393	net3#7	gnd!	3.53272e-18	$X=1.7725 $Y=0.8955
C1394	net13#5	gnd!	5.87488e-18	$X=2.9135 $Y=-0.7985
C1395	net1#6	gnd!	3.42647e-19	$X=2.7675 $Y=0.9685
C1396	net1#7	gnd!	4.26909e-18	$X=2.9885 $Y=0.775
C1397	XI18/net2#4	gnd!	1.41367e-17	$X=3.657 $Y=-0.855
C1398	net2#10	gnd!	4.46306e-18	$X=4.163 $Y=-0.8775
C1399	XI13/net2#4	gnd!	6.90624e-18	$X=4.3525 $Y=0.8725
C1400	vdd!#5	gnd!	4.97299e-19	$X=3.3685 $Y=-1.6785
C1401	vdd!#7	gnd!	1.61708e-19	$X=2.709 $Y=-1.682
C1402	vdd!#12	gnd!	1.32815e-19	$X=0.315 $Y=-1.683
C1403	vdd!#21	gnd!	1.11852e-19	$X=0.315 $Y=1.701
C1404	vdd!#24	gnd!	2.54693e-19	$X=0.9925 $Y=1.6895
C1405	vdd!#29	gnd!	6.9897e-19	$X=2.6145 $Y=1.7645
C1406	vdd!#32	gnd!	2.82607e-19	$X=3.4075 $Y=1.701
C1407	vdd!#35	gnd!	2.04195e-19	$X=4.064 $Y=1.6965
C1408	RST#2	gnd!	4.64923e-18	$X=0.4165 $Y=-0.934
C1409	CLK#2	gnd!	3.87853e-19	$X=1.0845 $Y=1.539
C1410	CLK#4	gnd!	3.81047e-18	$X=0.4165 $Y=0.9535
C1411	CLK#7	gnd!	1.13025e-17	$X=1.0485 $Y=0.9035
C1412	CLK#13	gnd!	5.88719e-18	$X=1.579 $Y=-0.8815
C1413	net3#2	gnd!	5.30229e-18	$X=2.2675 $Y=0.8425
C1414	Q#2	gnd!	4.95938e-18	$X=2.8115 $Y=-0.934
C1415	net6#2	gnd!	5.80289e-18	$X=2.886 $Y=0.836
C1416	net1#2	gnd!	3.14898e-18	$X=3.51 $Y=0.9535
C1417	net4#3	gnd!	4.87784e-18	$X=3.475 $Y=-0.8815
C1418	net2#2	gnd!	6.10426e-18	$X=4.7075 $Y=-0.934
C1419	net4#8	gnd!	1.51714e-18	$X=4.175 $Y=1.0895
C1420	net4#10	gnd!	1.03235e-17	$X=4.135 $Y=0.8795
C1421	net4#28	gnd!	2.40194e-17	$X=0.9995 $Y=0.1145
*
*
.ENDS ph1p3_MSDFF
*
