*
*
*
*                       LINUX           Mon Sep 30 18:19:51 2024
*
*
*
*  PROGRAM  advgen
*
*  Name           : advgen - Quantus - (64-bit)
*  Version        : 22.1.1-p041
*  Build Date     : Mon Apr 17 07:36:05 PDT 2023
*
*  HSPICE LIBRARY
*
*  QRC_TECH_DIR /home/viterbi/01/ee577/CDS_GPDK45/gpdk045_v_5_0/qrc/typical 
*
*!LENGTH_UNITS METERS
*
*
*

*
.SUBCKT NOR2_2X gnd! in_a in_b out vdd!
*
*
*  caps2d version: 10
*
*
*       TRANSISTOR CARDS
*
*
MMNM0	out#1	in_b#4	gnd!#8	gnd!	g45n1svt	L=4.5e-08
+ W=1.2e-07
+ AD=1.92e-14	AS=1.68e-14	PD=5.6e-07	PS=5.2e-07
+ fw=1.2e-07 sa=1.4e-07 sb=3.45e-07 sca=6.78406 scb=0.00345708 scc=2.49632e-05
MMNM1	out#1	in_a#4	gnd!#7	gnd!	g45n1svt	L=4.5e-08
+ W=1.2e-07
+ AD=1.92e-14	AS=1.68e-14	PD=5.6e-07	PS=5.2e-07
+ fw=1.2e-07 sa=3.45e-07 sb=1.4e-07 sca=6.78406 scb=0.00345708 scc=2.49632e-05
MMPM1	out#3	in_b#1	net4	vdd!	g45p1svt	L=4.5e-08
+ W=4.8e-07
+ AD=6.72e-14	AS=2.88e-14	PD=1.24e-06	PS=1.08e-06
+ fw=4.8e-07 sa=1.4e-07 sb=2.45e-07 sca=20.6209 scb=0.0199232 scc=0.00101156
MMPM0	net4	in_a#3	vdd!#5	vdd!	g45p1svt	L=4.5e-08
+ W=4.8e-07
+ AD=2.88e-14	AS=6.72e-14	PD=1.08e-06	PS=1.24e-06
+ fw=4.8e-07 sa=2.45e-07 sb=1.4e-07 sca=19.3983 scb=0.0173663 scc=0.00093676
*
*
*       RESISTOR AND CAP/DIODE CARDS
*
Rk1	in_b#3	in_b	45.074379	$metal1_conn	$W=1.115e-07
+ $X=0.273 $Y=0.61
Rk2	out#1	out#2	75.421394	$metal1_conn	$W=8e-08
+ $X=0.525 $Y=0.5725
Rk3	out#2	out	0.091533	$metal1_conn	$W=8.5e-08
+ $X=0.2505 $Y=0.76
Rk4	out#2	out#3	15.830233	$metal1_conn	$W=1e-07
+ $X=0.32 $Y=0.935
Rk5	in_a	in_a#1	45.081280	$metal1_conn	$W=1.15e-07
+ $X=0.7905 $Y=0.735
Rk7	gnd!#2	gnd!#4	0.084184	$metal1_conn	$W=1.25e-07
+ $X=0.66 $Y=0.07
Rk8	gnd!#4	gnd!	0.045912	$metal1_conn	$W=1.25e-07
+ $X=0.484 $Y=0.07
Rk9	gnd!	gnd!#5	0.073017	$metal1_conn	$W=1.25e-07
+ $X=0.408 $Y=0.07
Rk11	gnd!#2	gnd!#7	75.190506	$metal1_conn	$W=9e-08
+ $X=0.73 $Y=0.2425
Rk12	gnd!#5	gnd!#8	75.190506	$metal1_conn	$W=9e-08
+ $X=0.32 $Y=0.2425
Rk15	vdd!#2	vdd!#4	0.034550	$metal1_conn	$W=1.2e-07
+ $X=0.6 $Y=1.78
Rk16	vdd!#4	vdd!	0.044671	$metal1_conn	$W=1.25e-07
+ $X=0.4855 $Y=1.78
Rk17	vdd!#2	vdd!#5	15.800335	$metal1_conn	$W=1e-07
+ $X=0.63 $Y=1.61
Rl1	in_b#1	in_b#2	165.098740	$poly_conn	$W=3.9e-08
+ $X=0.4225 $Y=0.8555
Rl2	in_b#2	in_b#3	1.266559	$poly_conn	$W=9.4e-08
+ $X=0.4 $Y=0.61
Rl3	in_b#2	in_b#4	59.329506	$poly_conn	$W=3.9e-08
+ $X=0.4225 $Y=0.5025
Rl4	in_a#1	in_a#2	2.021347	$poly_conn	$W=9.4e-08
+ $X=0.65 $Y=0.735
Rl5	in_a#2	in_a#3	137.741302	$poly_conn	$W=3.9e-08
+ $X=0.6275 $Y=0.82
Rl6	in_a#2	in_a#4	107.406433	$poly_conn	$W=3.9e-08
+ $X=0.6275 $Y=0.565
*
*       CAPACITOR CARDS
*
*
C1	in_b	out	1.74843e-17	$X=0.206 $Y=0.702
C2	out	vdd!	2.0326e-18	$X=0.198 $Y=0.7645
C3	in_a#3	vdd!	9.78712e-18	$X=0.5225 $Y=1.2795
C4	in_b#1	vdd!	1.41531e-17	$X=0.421 $Y=1.2535
C5	in_b#1	in_a#3	6.40958e-17	$X=0.476 $Y=1.257
C6	vdd!	in_b#3	1.71996e-19	$X=0.351 $Y=0.634
C7	in_b	out#2	3.14572e-18	$X=0.27 $Y=0.646
C8	vdd!#5	vdd!	1.95889e-17	$X=0.6015 $Y=1.3325
C9	out#3	vdd!	3.04448e-17	$X=0.332 $Y=1.289
C10	in_b#4	in_a#4	1.02985e-17	$X=0.514 $Y=0.377
C11	vdd!#5	in_a#3	6.62438e-18	$X=0.5505 $Y=1.2795
C12	in_b#2	in_a#2	1.26705e-17	$X=0.4925 $Y=0.697
C13	out#2	vdd!	4.41172e-18	$X=0.421 $Y=0.786
C14	vdd!#5	in_b#1	3.52148e-18	$X=0.474 $Y=1.2595
C15	out#3	in_a#3	3.90173e-18	$X=0.4785 $Y=1.268
C16	in_b#2	in_a#4	2.71911e-18	$X=0.526 $Y=0.534
C17	out#3	in_b#1	7.27282e-18	$X=0.397 $Y=1.247
C18	in_a#1	vdd!#5	3.69971e-18	$X=0.698 $Y=0.8135
C19	out#2	in_a#3	2.33586e-19	$X=0.474 $Y=1.0135
C20	gnd!#7	in_a#4	2.69656e-18	$X=0.6605 $Y=0.3835
C21	out#1	in_a#4	3.37402e-18	$X=0.5975 $Y=0.4055
C22	out#2	in_b#1	1.42657e-18	$X=0.422 $Y=0.9905
C23	gnd!#8	in_a#4	1.10267e-18	$X=0.522 $Y=0.3835
C24	gnd!#7	in_b#4	1.10267e-18	$X=0.513 $Y=0.363
C25	out#1	in_b#4	2.32738e-18	$X=0.447 $Y=0.38
C26	gnd!#7	in_a#1	7.25449e-18	$X=0.715 $Y=0.6015
C27	gnd!#8	in_b#4	2.69656e-18	$X=0.3925 $Y=0.363
C28	out#3	vdd!#5	2.51637e-17	$X=0.476 $Y=1.285
C29	in_b#3	out#1	1.6872e-17	$X=0.418 $Y=0.5405
C30	gnd!#8	in_b#3	1.19668e-17	$X=0.338 $Y=0.4965
C31	out#2	in_a#1	1.83134e-17	$X=0.6135 $Y=0.7425
C32	gnd!#7	in_a#2	1.08605e-18	$X=0.6765 $Y=0.5445
C33	in_b#3	out#2	2.70851e-17	$X=0.381 $Y=0.6745
C34	out#1	gnd!#7	1.26661e-17	$X=0.638 $Y=0.3935
C35	out#1	in_b#2	1.62421e-18	$X=0.4515 $Y=0.607
C36	in_a#1	in_b#2	4.7601e-19	$X=0.564 $Y=0.706
C37	gnd!#8	gnd!#7	2.68649e-18	$X=0.5245 $Y=0.3635
C38	out#1	in_a#2	1.41058e-18	$X=0.5815 $Y=0.601
C39	gnd!#8	out#1	1.04707e-17	$X=0.4105 $Y=0.3935
C40	in_b#3	in_a#2	4.37682e-19	$X=0.4745 $Y=0.6645
C41	in_a#2	vdd!	2.19567e-18	$X=0.6195 $Y=0.7585
C42	out#2	in_b#2	5.66717e-18	$X=0.4215 $Y=0.705
C43	out#2	in_a#2	8.5036e-18	$X=0.5275 $Y=0.7455
C44	vdd!#5	in_a#2	2.29457e-18	$X=0.626 $Y=0.865
C45	in_b#1	in_a#2	6.22811e-18	$X=0.532 $Y=0.9685
C46	vdd!#2	vdd!	3.55391e-17	$X=0.804 $Y=1.7505
C47	out#2	vdd!#4	1.43046e-18	$X=0.4465 $Y=0.956
C48	vdd!#2	in_a#3	8.33709e-19	$X=0.596 $Y=1.376
C49	in_a#1	vdd!#2	1.38729e-18	$X=0.727 $Y=0.855
C50	vdd!	vdd!#4	1.54886e-17	$X=0.531 $Y=1.7485
C51	gnd!#5	in_b#3	1.07928e-18	$X=0.3175 $Y=0.484
C52	gnd!#4	out#1	4.13053e-18	$X=0.533 $Y=0.356
C53	vdd!#4	in_a#3	2.73111e-18	$X=0.5315 $Y=1.3695
C54	gnd!#5	in_b#4	1.69264e-18	$X=0.393 $Y=0.325
C55	vdd!#2	vdd!#4	1.26403e-17	$X=0.7115 $Y=1.7795
C56	gnd!#5	gnd!#4	8.91648e-18	$X=0.3395 $Y=0.087
C57	gnd!#2	in_a#1	4.88715e-19	$X=0.7285 $Y=0.652
C58	gnd!#2	in_a	3.70191e-18	$X=0.844 $Y=0.679
C59	gnd!#5	out	1.53987e-18	$X=0.1985 $Y=0.708
C60	gnd!#2	gnd!#4	9.91934e-18	$X=0.7295 $Y=0.085
C61	gnd!#2	in_a#4	6.01276e-19	$X=0.655 $Y=0.3575
C62	gnd!#2	in_a#2	1.21186e-19	$X=0.6765 $Y=0.595
C63	gnd!#4	in_a#2	7.03609e-19	$X=0.616 $Y=0.6155
C64	vdd!#2	in_a#2	7.72543e-19	$X=0.6725 $Y=0.9375
C65	gnd!#4	in_a#1	1.36379e-18	$X=0.695 $Y=0.666
C66	in_a	vdd!#2	2.19796e-18	$X=0.844 $Y=0.815
C67	vdd!#2	in_b#1	4.88901e-19	$X=0.518 $Y=1.3605
C68	gnd!#4	in_a#4	2.50662e-18	$X=0.6205 $Y=0.3625
C69	gnd!#7	gnd!	8.35321e-18	$X=0.7245 $Y=0.3635
C70	gnd!#8	gnd!	8.35321e-18	$X=0.3245 $Y=0.3635
C71	gnd!#5	in_a#4	2.62595e-19	$X=0.558 $Y=0.3445
C72	gnd!#5	gnd!#2	3.31365e-18	$X=0.48 $Y=0.097
C73	gnd!#2	in_b#4	2.62595e-19	$X=0.4665 $Y=0.3355
C74	gnd!#2	gnd!	2.97485e-17	$X=0.857 $Y=0.097
C75	gnd!#5	in_b	4.22856e-18	$X=0.2205 $Y=0.548
C76	gnd!	gnd!#4	6.6958e-18	$X=0.5655 $Y=0.0695
C77	gnd!#5	gnd!	2.54606e-17	$X=0.218 $Y=0.097
C78	in_a	gnd!	1.25307e-17	$X=0.843 $Y=0.734
C79	in_b	gnd!	1.0015e-17	$X=0.221 $Y=0.6095
C80	out	gnd!	9.92899e-18	$X=0.197 $Y=0.759
C81	in_b#1	gnd!	9.66452e-19	$X=0.422 $Y=1.242
C82	in_a#4	gnd!	9.90515e-18	$X=0.627 $Y=0.3945
C83	in_b#4	gnd!	8.60112e-18	$X=0.422 $Y=0.363
C84	in_a#1	gnd!	8.80415e-19	$X=0.71 $Y=0.734
C85	in_b#3	gnd!	9.14631e-18	$X=0.35 $Y=0.609
C86	vdd!#5	gnd!	1.01617e-18	$X=0.6245 $Y=1.309
C87	out#1	gnd!	5.80542e-18	$X=0.5245 $Y=0.434
C88	out#2	gnd!	1.14376e-17	$X=0.422 $Y=0.759
C89	vdd!#4	gnd!	1.15299e-19	$X=0.551 $Y=1.779
C90	in_b#2	gnd!	1.3887e-17	$X=0.422 $Y=0.678
C91	in_a#2	gnd!	1.91908e-17	$X=0.627 $Y=0.732
*
*
.ENDS NOR2_2X
*
