*
*
*
*                       LINUX           Mon Sep 30 15:11:42 2024
*
*
*
*  PROGRAM  advgen
*
*  Name           : advgen - Quantus - (64-bit)
*  Version        : 22.1.1-p041
*  Build Date     : Mon Apr 17 07:36:05 PDT 2023
*
*  HSPICE LIBRARY
*
*  QRC_TECH_DIR /home/viterbi/01/ee577/CDS_GPDK45/gpdk045_v_5_0/qrc/typical 
*
*!LENGTH_UNITS METERS
*
*
*

*
.SUBCKT INV_2X gnd! in out vdd!
*
*
*  caps2d version: 10
*
*
*       TRANSISTOR CARDS
*
*
MMNM0	out#2	in#4	gnd!#2	gnd!	g45n1svt	L=4.5e-08
+ W=1.2e-07
+ AD=1.68e-14	AS=1.68e-14	PD=5.2e-07	PS=5.2e-07
+ fw=1.2e-07 sa=1.4e-07 sb=1.4e-07 sca=17.8161 scb=0.0190899 scc=0.00152594
MMPM0	out#3	in#1	vdd!#3	vdd!	g45p1svt	L=4.5e-08
+ W=4.8e-07
+ AD=6.72e-14	AS=6.72e-14	PD=1.24e-06	PS=1.24e-06
+ fw=4.8e-07 sa=1.4e-07 sb=1.4e-07 sca=19.0576 scb=0.0170651 scc=0.000872115
*
*
*       RESISTOR AND CAP/DIODE CARDS
*
Rk1	in#3	in	45.071301	$metal1_conn	$W=1.15e-07
+ $X=0.373 $Y=0.89
Rk2	out	out#1	0.014828	$metal1_conn	$W=1.15e-07
+ $X=0.683 $Y=0.89
Rk3	out#1	out#2	75.192848	$metal1_conn	$W=9e-08
+ $X=0.64 $Y=0.7475
Rk4	out#1	out#3	15.796576	$metal1_conn	$W=9e-08
+ $X=0.64 $Y=1.0125
Rk6	vdd!	vdd!#3	15.885947	$metal1_conn	$W=9e-08
+ $X=0.435 $Y=1.6125
Rk9	gnd!	gnd!#2	75.390007	$metal1_conn	$W=9e-08
+ $X=0.435 $Y=0.3625
Rl1	in#1	in#2	59.329506	$poly_conn	$W=3.9e-08
+ $X=0.5375 $Y=0.998
Rl2	in#2	in#3	3.516560	$poly_conn	$W=9.4e-08
+ $X=0.515 $Y=0.89
Rl3	in#2	in#4	74.714127	$poly_conn	$W=3.9e-08
+ $X=0.5375 $Y=0.7625
*
*       CAPACITOR CARDS
*
*
C1	out#3	in#1	8.02212e-18	$X=0.5585 $Y=1.3085
C2	vdd!#3	in#1	1.04142e-17	$X=0.5155 $Y=1.3165
C3	in#3	vdd!#3	1.19914e-17	$X=0.451 $Y=0.9765
C4	out#2	in#4	3.8751e-18	$X=0.5685 $Y=0.6215
C5	out#1	in#1	3.72413e-19	$X=0.601 $Y=1.0425
C6	gnd!#2	in#4	5.6942e-18	$X=0.511 $Y=0.601
C7	vdd!#3	out#3	3.76164e-17	$X=0.5385 $Y=1.301
C8	out#1	in#4	4.0106e-19	$X=0.5815 $Y=0.7295
C9	gnd!#2	in#3	9.47709e-18	$X=0.448 $Y=0.7575
C10	in#3	out#1	2.11801e-17	$X=0.5655 $Y=0.883
C11	gnd!#2	out#2	1.27083e-17	$X=0.551 $Y=0.6095
C12	out#1	in#2	4.74393e-18	$X=0.5755 $Y=0.8795
C13	in#1	vdd!	1.59073e-17	$X=0.539 $Y=1.3235
C14	in#3	vdd!	3.78551e-18	$X=0.4575 $Y=0.906
C15	in	vdd!	9.4768e-18	$X=0.319 $Y=0.8965
C16	out	vdd!	9.07328e-18	$X=0.735 $Y=0.896
C17	out#3	vdd!	2.31188e-17	$X=0.633 $Y=1.3105
C18	out#1	vdd!	2.81174e-18	$X=0.639 $Y=0.8905
C19	in#2	vdd!	6.48869e-18	$X=0.5375 $Y=0.8865
C20	vdd!#3	vdd!	1.90213e-17	$X=0.454 $Y=1.3445
C21	gnd!#2	gnd!	1.7145e-17	$X=0.4395 $Y=0.569
C22	in	gnd!	9.59726e-18	$X=0.316 $Y=0.889
C23	out	gnd!	6.28534e-18	$X=0.7365 $Y=0.889
C24	in#4	gnd!	1.59736e-17	$X=0.537 $Y=0.6125
C25	in#3	gnd!	3.94778e-18	$X=0.454 $Y=0.889
C26	out#2	gnd!	1.19981e-17	$X=0.6345 $Y=0.6395
C27	out#1	gnd!	3.72791e-18	$X=0.6395 $Y=0.879
C28	in#2	gnd!	7.70137e-18	$X=0.537 $Y=0.8795
*
*
.ENDS INV_2X
*
