*
*
*
*                       LINUX           Mon Sep 30 17:30:37 2024
*
*
*
*  PROGRAM  advgen
*
*  Name           : advgen - Quantus - (64-bit)
*  Version        : 22.1.1-p041
*  Build Date     : Mon Apr 17 07:36:05 PDT 2023
*
*  HSPICE LIBRARY
*
*  QRC_TECH_DIR /home/viterbi/01/ee577/CDS_GPDK45/gpdk045_v_5_0/qrc/typical 
*
*!LENGTH_UNITS METERS
*
*
*

*
.SUBCKT NAND2_1X gnd! in_a in_b out vdd!
*
*
*  caps2d version: 10
*
*
*       TRANSISTOR CARDS
*
*
MMNM1	net9	in_a#4	gnd!#2	gnd!	g45n1svt	L=4.5e-08
+ W=1.2e-07
+ AD=7.2e-15	AS=1.68e-14	PD=3.6e-07	PS=5.2e-07
+ fw=1.2e-07 sa=1.4e-07 sb=2.45e-07 sca=7.31073 scb=0.00435535 scc=4.26584e-05
MMNM0	out#3	in_b#3	net9	gnd!	g45n1svt	L=4.5e-08
+ W=1.2e-07
+ AD=1.68e-14	AS=7.2e-15	PD=5.2e-07	PS=3.6e-07
+ fw=1.2e-07 sa=2.45e-07 sb=1.4e-07 sca=7.31073 scb=0.00435535 scc=4.26584e-05
MMPM1	out#2	in_b#4	vdd!#6	vdd!	g45p1svt	L=4.5e-08
+ W=2.4e-07
+ AD=3.84e-14	AS=3.36e-14	PD=8e-07	PS=7.6e-07
+ fw=2.4e-07 sa=3.45e-07 sb=1.4e-07 sca=26.1818 scb=0.02439 scc=0.00221187
MMPM0	out#2	in_a#1	vdd!#5	vdd!	g45p1svt	L=4.5e-08
+ W=2.4e-07
+ AD=3.84e-14	AS=3.36e-14	PD=8e-07	PS=7.6e-07
+ fw=2.4e-07 sa=1.4e-07 sb=3.45e-07 sca=30.4634 scb=0.0324604 scc=0.00263539
*
*
*       RESISTOR AND CAP/DIODE CARDS
*
Rk1	in_a#3	in_a	45.065365	$metal1_conn	$W=1.15e-07
+ $X=0.174 $Y=0.885
Rk2	in_b	in_b#1	45.073650	$metal1_conn	$W=1.095e-07
+ $X=0.6905 $Y=0.915
Rk3	out	out#1	0.196488	$metal1_conn	$W=8.5e-08
+ $X=0.678 $Y=0.765
Rk4	out#1	out#2	31.375460	$metal1_conn	$W=7.75e-08
+ $X=0.435 $Y=0.9325
Rk5	out#1	out#3	75.209846	$metal1_conn	$W=1e-07
+ $X=0.54 $Y=0.5925
Rk7	vdd!#2	vdd!#4	0.039546	$metal1_conn	$W=1.2e-07
+ $X=0.61 $Y=1.785
Rk8	vdd!#4	vdd!	0.095625	$metal1_conn	$W=1.25e-07
+ $X=0.434 $Y=1.785
Rk9	vdd!	vdd!#5	31.468418	$metal1_conn	$W=9e-08
+ $X=0.23 $Y=1.4875
Rk10	vdd!#2	vdd!#6	31.397682	$metal1_conn	$W=9e-08
+ $X=0.64 $Y=1.4875
Rk13	gnd!	gnd!#2	75.274277	$metal1_conn	$W=1e-07
+ $X=0.23 $Y=0.2625
Rl1	in_a#1	in_a#2	55.483356	$poly_conn	$W=3.9e-08
+ $X=0.3325 $Y=0.988
Rl2	in_a#2	in_a#3	3.516560	$poly_conn	$W=9.4e-08
+ $X=0.31 $Y=0.885
Rl3	in_a#2	in_a#4	151.637192	$poly_conn	$W=3.9e-08
+ $X=0.3325 $Y=0.6575
Rl4	in_b#1	in_b#2	2.021347	$poly_conn	$W=9.4e-08
+ $X=0.56 $Y=0.915
Rl5	in_b#2	in_b#3	183.895157	$poly_conn	$W=3.9e-08
+ $X=0.5375 $Y=0.7775
Rl6	in_b#2	in_b#4	43.944893	$poly_conn	$W=3.9e-08
+ $X=0.5375 $Y=1.0025
*
*       CAPACITOR CARDS
*
*
C1	in_a	vdd!	8.08601e-18	$X=0.1305 $Y=0.891
C2	out	in_b	1.85437e-17	$X=0.753 $Y=0.85
C3	in_b	vdd!	6.75007e-18	$X=0.7315 $Y=0.9205
C4	in_b#4	vdd!	5.51245e-18	$X=0.533 $Y=1.1975
C5	in_a#1	vdd!	8.53922e-18	$X=0.332 $Y=1.1905
C6	out	in_b#1	1.67916e-18	$X=0.7055 $Y=0.83
C7	vdd!	in_b#3	1.52416e-19	$X=0.4345 $Y=0.498
C8	in_a#1	in_b#4	1.2063e-17	$X=0.436 $Y=1.187
C9	in_a#3	vdd!	3.16269e-18	$X=0.2525 $Y=0.9025
C10	vdd!#6	vdd!	1.74509e-17	$X=0.6165 $Y=1.2335
C11	out#2	vdd!	5.27815e-18	$X=0.428 $Y=1.1545
C12	vdd!#5	vdd!	1.99822e-17	$X=0.2405 $Y=1.2475
C13	in_a#4	in_b#3	3.98393e-17	$X=0.3805 $Y=0.4655
C14	vdd!#6	in_b#4	4.46622e-18	$X=0.558 $Y=1.1945
C15	out#2	in_b#4	2.86515e-18	$X=0.5145 $Y=1.1765
C16	in_a#2	in_b#2	1.26534e-17	$X=0.404 $Y=0.8225
C17	vdd!#5	in_b#4	1.81894e-18	$X=0.473 $Y=1.1975
C18	vdd!#6	in_a#1	1.81894e-18	$X=0.4 $Y=1.1895
C19	in_a#2	in_b#3	6.20919e-18	$X=0.3755 $Y=0.678
C20	out#2	in_a#1	3.0575e-18	$X=0.355 $Y=1.1705
C21	vdd!#5	in_a#1	4.46622e-18	$X=0.3105 $Y=1.192
C22	in_b#1	vdd!#6	1.53027e-17	$X=0.6185 $Y=0.9735
C23	out#3	in_b#3	3.65964e-18	$X=0.476 $Y=0.4635
C24	out#2	in_b#1	1.25048e-17	$X=0.5785 $Y=0.9565
C25	in_a#3	out#2	7.80775e-18	$X=0.3045 $Y=0.956
C26	out#3	in_a#4	2.03481e-18	$X=0.406 $Y=0.454
C27	in_a#3	vdd!#5	1.28579e-17	$X=0.2455 $Y=0.981
C28	gnd!#2	in_a#4	3.90975e-18	$X=0.2975 $Y=0.431
C29	out#1	in_b#3	3.74618e-18	$X=0.4775 $Y=0.561
C30	out#2	vdd!#6	2.16251e-17	$X=0.5345 $Y=1.169
C31	vdd!#5	vdd!#6	7.44003e-18	$X=0.4395 $Y=1.2175
C32	out#1	in_a#4	6.95324e-19	$X=0.4065 $Y=0.5425
C33	gnd!#2	in_a#3	6.10706e-18	$X=0.2435 $Y=0.6655
C34	vdd!#5	out#2	2.16251e-17	$X=0.3365 $Y=1.1745
C35	out#1	in_b#1	2.64816e-17	$X=0.5905 $Y=0.843
C36	in_a#3	out#1	1.37856e-17	$X=0.3785 $Y=0.7995
C37	in_b#1	in_a#2	4.11623e-19	$X=0.4715 $Y=0.8675
C38	in_a#3	in_b#2	4.54641e-19	$X=0.389 $Y=0.854
C39	in_a#2	vdd!	4.47469e-18	$X=0.332 $Y=0.834
C40	in_b#2	vdd!	5.32074e-18	$X=0.531 $Y=0.8435
C41	vdd!#6	in_b#2	1.63801e-18	$X=0.567 $Y=0.942
C42	out#1	in_a#2	3.48139e-18	$X=0.3975 $Y=0.7815
C43	out#2	in_a#2	1.07387e-18	$X=0.352 $Y=0.882
C44	out#1	in_b#2	9.19894e-18	$X=0.538 $Y=0.763
C45	out#2	in_b#2	1.33849e-18	$X=0.505 $Y=0.916
C46	in_a#1	in_b#2	5.74786e-19	$X=0.4125 $Y=1.0405
C47	gnd!#2	gnd!	1.44653e-17	$X=0.2345 $Y=0.3815
C48	vdd!#2	vdd!	4.60271e-17	$X=0.7425 $Y=1.709
C49	vdd!	vdd!#4	1.44877e-17	$X=0.5135 $Y=1.7605
C50	out#1	vdd!#4	7.12586e-19	$X=0.5395 $Y=0.894
C51	out	vdd!#2	2.06189e-18	$X=0.778 $Y=0.8405
C52	out#2	vdd!#4	1.91273e-18	$X=0.466 $Y=1.3245
C53	in_b#1	vdd!#4	1.11817e-18	$X=0.6075 $Y=0.9985
C54	in_b	vdd!#2	2.21405e-18	$X=0.739 $Y=0.9635
C55	vdd!#4	in_b#4	1.30372e-18	$X=0.537 $Y=1.254
C56	vdd!#5	vdd!#2	2.04789e-18	$X=0.415 $Y=1.384
C57	vdd!#2	vdd!#4	1.24238e-17	$X=0.673 $Y=1.754
C58	vdd!#4	in_b#2	1.22133e-19	$X=0.5375 $Y=0.977
C59	in_a	gnd!	8.95816e-18	$X=0.129 $Y=0.884
C60	in_b	gnd!	3.41886e-18	$X=0.7355 $Y=0.914
C61	out	gnd!	1.89905e-17	$X=0.7765 $Y=0.764
C62	vdd!	gnd!	8.47332e-20	$X=0.332 $Y=1.597
C63	in_b#3	gnd!	1.86708e-17	$X=0.437 $Y=0.474
C64	in_a#4	gnd!	1.49615e-17	$X=0.332 $Y=0.4575
C65	in_b#1	gnd!	2.35871e-19	$X=0.615 $Y=0.914
C66	in_a#3	gnd!	4.07867e-18	$X=0.2505 $Y=0.884
C67	out#3	gnd!	2.81331e-17	$X=0.5345 $Y=0.447
C68	out#1	gnd!	1.38942e-17	$X=0.5395 $Y=0.693
C69	vdd!#4	gnd!	1.13311e-19	$X=0.5405 $Y=1.784
C70	in_a#2	gnd!	1.05659e-17	$X=0.332 $Y=0.822
C71	in_b#2	gnd!	1.54883e-17	$X=0.537 $Y=0.822
*
*
.ENDS NAND2_1X
*
