*
*
*
*                       LINUX           Wed Nov 20 21:50:58 2024
*
*
*
*  PROGRAM  advgen
*
*  Name           : advgen - Quantus - (64-bit)
*  Version        : 22.1.1-p041
*  Build Date     : Mon Apr 17 07:36:05 PDT 2023
*
*  HSPICE LIBRARY
*
*  QRC_TECH_DIR /home/viterbi/01/ee577/CDS_GPDK45/gpdk045_v_5_0/qrc/typical 
*
*!LENGTH_UNITS METERS
*
*
*

*
.SUBCKT ph1p3_MSDFF CLK D Q RST gnd! vdd!
*
*
*  caps2d version: 10
*
*
*       TRANSISTOR CARDS
*
*
MXI11/MNM1	gnd!#26	net3#4	XI11/net3#2	gnd!	g45n1svt
+ L=4.5e-08	W=1.2e-07
+ AD=1.68e-14	AS=1.68e-14	PD=5.2e-07	PS=5.2e-07
+ fw=1.2e-07 sa=1.4e-07 sb=1.4e-07 sca=10.5213 scb=0.00984539 scc=0.000291491
MXI11/MNM0	XI11/net3	net6#4	net1#10	gnd!	g45n1svt
+ L=4.5e-08	W=1.2e-07
+ AD=1.68e-14	AS=1.68e-14	PD=5.2e-07	PS=5.2e-07
+ fw=1.2e-07 sa=1.4e-07 sb=1.4e-07 sca=10.5213 scb=0.00984539 scc=0.000291491
MXI13/XI0/MNM0	XI13/net2#5	net4#11	gnd!#22	gnd!
+ g45n1svt	L=4.5e-08	W=1.2e-07
+ AD=1.68e-14	AS=1.68e-14	PD=5.2e-07	PS=5.2e-07
+ fw=1.2e-07 sa=1.4e-07 sb=1.4e-07 sca=9.20059 scb=0.00764836 scc=0.000159521
MXI13/MNM0	net3#13	XI13/net2	net11#6	gnd!
+ g45n1svt	L=4.5e-08	W=1.2e-07
+ AD=1.68e-14	AS=1.68e-14	PD=5.2e-07	PS=5.2e-07
+ fw=1.2e-07 sa=1.4e-07 sb=1.4e-07 sca=9.20059 scb=0.00764836 scc=0.000159521
MXI18/XI0/MNM0	XI18/net2#3	net4#5	gnd!#24	gnd!	g45n1svt
+ L=4.5e-08	W=1.2e-07
+ AD=1.68e-14	AS=1.68e-14	PD=5.2e-07	PS=5.2e-07
+ fw=1.2e-07 sa=1.4e-07 sb=1.4e-07 sca=9.20059 scb=0.00764836 scc=0.000159521
MXI18/MNM0	net2#12	XI18/net2	net1#12	gnd!
+ g45n1svt	L=4.5e-08	W=1.2e-07
+ AD=1.68e-14	AS=1.68e-14	PD=5.2e-07	PS=5.2e-07
+ fw=1.2e-07 sa=1.4e-07 sb=1.4e-07 sca=9.20059 scb=0.00764836 scc=0.000159521
MXI15/XI0/MNM0	XI15/net2#3	CLK#15	gnd!#27	gnd!	g45n1svt
+ L=4.5e-08	W=1.2e-07
+ AD=1.68e-14	AS=1.68e-14	PD=5.2e-07	PS=5.2e-07
+ fw=1.2e-07 sa=1.4e-07 sb=1.4e-07 sca=9.20059 scb=0.00764836 scc=0.000159521
MXI15/MNM0	net2#5	XI15/net2	net13	gnd!	g45n1svt
+ L=4.5e-08	W=1.2e-07
+ AD=1.68e-14	AS=1.68e-14	PD=5.2e-07	PS=5.2e-07
+ fw=1.2e-07 sa=1.4e-07 sb=1.4e-07 sca=9.20059 scb=0.00764836 scc=0.000159521
MXI9/XI0/MNM0	XI9/net2#5	CLK#8	gnd!#28	gnd!	g45n1svt
+ L=4.5e-08	W=1.2e-07
+ AD=1.68e-14	AS=1.68e-14	PD=5.2e-07	PS=5.2e-07
+ fw=1.2e-07 sa=1.4e-07 sb=1.4e-07 sca=9.20059 scb=0.00764836 scc=0.000159521
MXI9/MNM0	net3#8	XI9/net2	D#1	gnd!	g45n1svt
+ L=4.5e-08	W=1.2e-07
+ AD=1.68e-14	AS=1.68e-14	PD=5.2e-07	PS=5.2e-07
+ fw=1.2e-07 sa=1.4e-07 sb=1.4e-07 sca=9.20059 scb=0.00764836 scc=0.000159521
MXI17/MNM0	Q#9	net2	gnd!#21	gnd!	g45n1svt
+ L=4.5e-08	W=1.2e-07
+ AD=1.68e-14	AS=1.68e-14	PD=5.2e-07	PS=5.2e-07
+ fw=1.2e-07 sa=1.4e-07 sb=1.4e-07 sca=9.90901 scb=0.00884432 scc=0.000225386
MXI12/MNM0	net11#3	net1#4	gnd!#23	gnd!	g45n1svt
+ L=4.5e-08	W=1.2e-07
+ AD=1.68e-14	AS=1.68e-14	PD=5.2e-07	PS=5.2e-07
+ fw=1.2e-07 sa=1.4e-07 sb=1.4e-07 sca=9.90901 scb=0.00884432 scc=0.000225386
MXI16/MNM0	net13#4	Q#1	gnd!#25	gnd!	g45n1svt
+ L=4.5e-08	W=1.2e-07
+ AD=1.68e-14	AS=1.68e-14	PD=5.2e-07	PS=5.2e-07
+ fw=1.2e-07 sa=1.4e-07 sb=1.4e-07 sca=9.90901 scb=0.00884432 scc=0.000225386
MXI19/MNM0	net4#15	CLK#9	gnd!#30	gnd!	g45n1svt
+ L=4.5e-08	W=1.2e-07
+ AD=1.68e-14	AS=1.68e-14	PD=5.2e-07	PS=5.2e-07
+ fw=1.2e-07 sa=1.4e-07 sb=1.4e-07 sca=9.90901 scb=0.00884432 scc=0.000225386
MXI22/MNM0	net6#5	RST#1	gnd!#29	gnd!	g45n1svt
+ L=4.5e-08	W=1.2e-07
+ AD=1.68e-14	AS=1.68e-14	PD=5.2e-07	PS=5.2e-07
+ fw=1.2e-07 sa=1.4e-07 sb=1.4e-07 sca=9.90901 scb=0.00884432 scc=0.000225386
MXI11/MPM1	net1#9	net3	vdd!#35	vdd!	g45p1svt
+ L=4.5e-08	W=2.4e-07
+ AD=3.36e-14	AS=3.36e-14	PD=7.6e-07	PS=7.6e-07
+ fw=2.4e-07 sa=1.4e-07 sb=1.4e-07 sca=11.1944 scb=0.00923888 scc=0.000202241
MXI11/MPM0	net1#5	net6	vdd!#33	vdd!	g45p1svt
+ L=4.5e-08	W=2.4e-07
+ AD=3.36e-14	AS=3.36e-14	PD=7.6e-07	PS=7.6e-07
+ fw=2.4e-07 sa=1.4e-07 sb=1.4e-07 sca=11.0834 scb=0.00904972 scc=0.000187092
MXI22/MPM0	net6#7	RST#4	vdd!#18	vdd!	g45p1svt
+ L=4.5e-08	W=2.4e-07
+ AD=3.36e-14	AS=3.36e-14	PD=7.6e-07	PS=7.6e-07
+ fw=2.4e-07 sa=1.4e-07 sb=1.4e-07 sca=15.5779 scb=0.0149308 scc=0.000240309
MXI19/MPM0	net4#13	CLK#3	vdd!#37	vdd!	g45p1svt
+ L=4.5e-08	W=2.4e-07
+ AD=3.36e-14	AS=3.36e-14	PD=7.6e-07	PS=7.6e-07
+ fw=2.4e-07 sa=1.4e-07 sb=1.4e-07 sca=15.5779 scb=0.0149308 scc=0.000240309
MXI9/XI0/MPM0	XI9/net2#3	CLK#6	vdd!#36	vdd!	g45p1svt
+ L=4.5e-08	W=2.4e-07
+ AD=3.36e-14	AS=3.36e-14	PD=7.6e-07	PS=7.6e-07
+ fw=2.4e-07 sa=1.4e-07 sb=1.4e-07 sca=10.4559 scb=0.00793674 scc=0.000107477
MXI15/XI0/MPM0	XI15/net2#5	CLK#12	vdd!#16	vdd!	g45p1svt
+ L=4.5e-08	W=2.4e-07
+ AD=3.36e-14	AS=3.36e-14	PD=7.6e-07	PS=7.6e-07
+ fw=2.4e-07 sa=1.4e-07 sb=1.4e-07 sca=10.4559 scb=0.00793674 scc=0.000107477
MXI9/MPM0	net3#10	CLK#1	D#2	vdd!	g45p1svt
+ L=4.5e-08	W=1.2e-07
+ AD=1.68e-14	AS=1.68e-14	PD=5.2e-07	PS=5.2e-07
+ fw=1.2e-07 sa=1.4e-07 sb=1.4e-07 sca=11.0214 scb=0.00904448 scc=0.000163241
MXI15/MPM0	net2#7	CLK#11	net13#3	vdd!	g45p1svt
+ L=4.5e-08	W=1.2e-07
+ AD=1.68e-14	AS=1.68e-14	PD=5.2e-07	PS=5.2e-07
+ fw=1.2e-07 sa=1.4e-07 sb=1.4e-07 sca=11.0214 scb=0.00904448 scc=0.000163241
MXI16/MPM0	net13#7	Q#4	vdd!#15	vdd!	g45p1svt
+ L=4.5e-08	W=2.4e-07
+ AD=3.36e-14	AS=3.36e-14	PD=7.6e-07	PS=7.6e-07
+ fw=2.4e-07 sa=1.4e-07 sb=1.4e-07 sca=10.6403 scb=0.00827174 scc=0.000129767
MXI18/XI0/MPM0	XI18/net2#5	net4#2	vdd!#14	vdd!	g45p1svt
+ L=4.5e-08	W=2.4e-07
+ AD=3.36e-14	AS=3.36e-14	PD=7.6e-07	PS=7.6e-07
+ fw=2.4e-07 sa=1.4e-07 sb=1.4e-07 sca=10.4559 scb=0.00793674 scc=0.000107477
MXI12/MPM0	net11	net1	vdd!#32	vdd!	g45p1svt
+ L=4.5e-08	W=2.4e-07
+ AD=3.36e-14	AS=3.36e-14	PD=7.6e-07	PS=7.6e-07
+ fw=2.4e-07 sa=1.4e-07 sb=1.4e-07 sca=10.6403 scb=0.00827174 scc=0.000129767
MXI18/MPM0	net2#11	net4	net1#14	vdd!	g45p1svt
+ L=4.5e-08	W=1.2e-07
+ AD=1.68e-14	AS=1.68e-14	PD=5.2e-07	PS=5.2e-07
+ fw=1.2e-07 sa=1.4e-07 sb=1.4e-07 sca=11.0214 scb=0.00904448 scc=0.000163241
MXI13/XI0/MPM0	XI13/net2#3	net4#7	vdd!#31	vdd!	g45p1svt
+ L=4.5e-08	W=2.4e-07
+ AD=3.36e-14	AS=3.36e-14	PD=7.6e-07	PS=7.6e-07
+ fw=2.4e-07 sa=1.4e-07 sb=1.4e-07 sca=10.6253 scb=0.00797597 scc=0.000107482
MXI17/MPM0	Q#8	net2#4	vdd!#13	vdd!	g45p1svt
+ L=4.5e-08	W=2.4e-07
+ AD=3.36e-14	AS=3.36e-14	PD=7.6e-07	PS=7.6e-07
+ fw=2.4e-07 sa=1.4e-07 sb=1.4e-07 sca=15.7239 scb=0.0151885 scc=0.000250442
MXI13/MPM0	net3#11	net4#6	net11#4	vdd!	g45p1svt
+ L=4.5e-08	W=1.2e-07
+ AD=1.68e-14	AS=1.68e-14	PD=5.2e-07	PS=5.2e-07
+ fw=1.2e-07 sa=1.4e-07 sb=1.4e-07 sca=18.1453 scb=0.0194268 scc=0.000476439
*
*
*       RESISTOR AND CAP/DIODE CARDS
*
Rh1	vdd!#42	vdd!#44	3.436718	$metal4_conn
+ $W=1e-07	$X=0.77 $Y=0.01
Ri1	vdd!#42	vdd!#38	0.500000	$metal3_conn
+ $W=8e-08	$X=0.77 $Y=-1.635
Ri2	vdd!#44	vdd!#40	0.500000	$metal3_conn
+ $W=8e-08	$X=2.555 $Y=1.655
Ri3	net4#25	net4#28	2.008151	$metal3_conn
+ $W=1e-07	$X=2.4925 $Y=1.085
Ri4	net4#28	net4#21	0.679350	$metal3_conn
+ $W=1e-07	$X=0.7525 $Y=1.085
Ri5	net4#28	net4#23	2.536507	$metal3_conn
+ $W=9.15e-08	$X=2.115 $Y=-0.835
Ri6	net2#15	net2#13	2.610771	$metal3_conn
+ $W=1e-07	$X=4.445 $Y=-1.31
Ri7	net3#16	net3#14	2.624970	$metal3_conn
+ $W=1e-07	$X=4.88 $Y=0.71
Rj1	net4#21	net4#14	0.500000	$metal2_conn
+ $W=8e-08	$X=0.57 $Y=1.085
Rj2	vdd!#38	vdd!#17	0.500000	$metal2_conn
+ $W=8e-08	$X=0.77 $Y=-1.635
Rj3	CLK#20	CLK#17	2.664546	$metal2_conn	$W=1e-07
+ $X=1.395 $Y=-0.965
Rj4	net3#14	net3#9	0.500000	$metal2_conn	$W=8e-08
+ $X=1.955 $Y=0.485
Rj5	net2#13	net2#6	0.500000	$metal2_conn	$W=8e-08
+ $X=2.315 $Y=-1.035
Rj6	vdd!#40	vdd!#34	0.500000	$metal2_conn
+ $W=8e-08	$X=2.555 $Y=1.655
Rj7	net6#9	net6#6	2.725822	$metal2_conn	$W=9.4e-08
+ $X=0.74 $Y=0.0175
Rj8	net13#6	net13#2	1.362980	$metal2_conn
+ $W=1e-07	$X=2.455 $Y=-0.73
Rj9	net4#23	net4#17	0.500000	$metal2_conn
+ $W=8e-08	$X=3.295 $Y=-0.88
Rj10	net1#8	net1#13	2.405614	$metal2_conn	$W=9e-08
+ $X=3.02 $Y=-0.9175
Rj11	net4#25	net4#18	0.500000	$metal2_conn
+ $W=8e-08	$X=4.05 $Y=1.085
Rj12	net2#15	net2#9	0.500000	$metal2_conn	$W=8e-08
+ $X=4.445 $Y=-0.985
Rj13	net11#5	net11#2	1.507360	$metal2_conn
+ $W=1e-07	$X=4.175 $Y=0.755
Rj14	net3#16	net3#12	0.500000	$metal2_conn
+ $W=8e-08	$X=4.88 $Y=0.945
Rj15	Q#6	Q#7	2.768082	$metal2_conn	$W=1e-07
+ $X=2.6 $Y=-1.3275
Rk1	CLK#5	CLK	45.060238	$metal1_conn	$W=1.15e-07
+ $X=0.2775 $Y=1.02
Rk2	CLK	CLK#17	0.012037	$metal1_conn	$W=1.3e-07
+ $X=0.215 $Y=1.005
Rk3	RST#3	RST	45.044174	$metal1_conn	$W=1.15e-07
+ $X=0.284 $Y=-1
Rk4	net6#5	net6#6	75.168709	$metal1_conn	$W=9e-08
+ $X=0.515 $Y=-0.595
Rk5	net6#6	net6#7	31.401915	$metal1_conn	$W=8.75e-08
+ $X=0.515 $Y=-0.8825
Rk6	net4#13	net4#14	31.161860	$metal1_conn
+ $W=9e-08	$X=0.515 $Y=1.185
Rk7	net4#14	net4#15	75.368797	$metal1_conn
+ $W=8.75e-08	$X=0.515 $Y=0.7625
Rk8	CLK#14	CLK#20	45.064770	$metal1_conn	$W=1.15e-07
+ $X=1.4525 $Y=-0.895
Rk9	D	D#1	75.340355	$metal1_conn	$W=8e-08
+ $X=1.565 $Y=0.712
Rk10	D	D#2	62.281124	$metal1_conn	$W=8e-08
+ $X=1.565 $Y=1.083
Rk11	XI9/net2#3	XI9/net2#4	31.334099	$metal1_conn
+ $W=8.5e-08	$X=1.18 $Y=1.085
Rk12	XI9/net2#4	XI9/net2#5	75.298203	$metal1_conn
+ $W=8e-08	$X=1.18 $Y=0.685
Rk13	XI9/net2#4	XI9/net2#2	45.767109	$metal1_conn
+ $W=8e-08	$X=1.35 $Y=0.595
Rk14	net13	net13#2	75.202492	$metal1_conn	$W=8e-08
+ $X=2.065 $Y=-0.5825
Rk15	net13#2	net13#3	62.397503	$metal1_conn
+ $W=8e-08	$X=2.065 $Y=-1.0175
Rk16	XI15/net2#3	XI15/net2#4	75.298203	$metal1_conn
+ $W=8e-08	$X=1.68 $Y=-0.665
Rk17	XI15/net2#4	XI15/net2#5	31.334099	$metal1_conn
+ $W=8.5e-08	$X=1.68 $Y=-1.065
Rk18	XI15/net2#4	XI15/net2#2	45.767109	$metal1_conn
+ $W=8e-08	$X=1.85 $Y=-0.575
Rk19	net3#3	net3#6	45.111744	$metal1_conn	$W=1.15e-07
+ $X=2.105 $Y=0.805
Rk20	net3#6	net3#7	0.122978	$metal1_conn	$W=1e-07
+ $X=1.8575 $Y=0.91
Rk21	net3#7	net3#8	75.350143	$metal1_conn	$W=8e-08
+ $X=1.77 $Y=0.7
Rk22	net3#6	net3#9	0.218966	$metal1_conn	$W=8e-08
+ $X=1.945 $Y=0.6525
Rk23	net3#7	net3#10	62.285446	$metal1_conn	$W=9e-08
+ $X=1.77 $Y=1.1
Rk24	net2#5	net2#6	75.387138	$metal1_conn	$W=9e-08
+ $X=2.27 $Y=-0.68
Rk25	net2#6	net2#7	62.171009	$metal1_conn	$W=9e-08
+ $X=2.27 $Y=-1.17
Rk26	Q#3	Q#6	45.078156	$metal1_conn	$W=1.15e-07
+ $X=2.67 $Y=-1
Rk27	XI11/net3	XI11/net3#2	150.520660	$metal1_conn
+ $W=9e-08	$X=2.785 $Y=0.435
Rk28	net6#3	net6#9	45.104626	$metal1_conn	$W=2.75e-07
+ $X=2.7275 $Y=0.7825
Rk29	net13#4	net13#5	75.175613	$metal1_conn
+ $W=9e-08	$X=2.915 $Y=-0.605
Rk30	net13#5	net13#6	0.030149	$metal1_conn
+ $W=1e-07	$X=2.88 $Y=-0.73
Rk31	net13#5	net13#7	31.415377	$metal1_conn
+ $W=8.75e-08	$X=2.915 $Y=-0.8675
Rk32	net4#4	net4#17	45.064770	$metal1_conn	$W=1.15e-07
+ $X=3.3525 $Y=-0.895
Rk33	net1#5	net1#6	31.243654	$metal1_conn	$W=9e-08
+ $X=2.99 $Y=1.115
Rk34	net1#6	net1#7	0.144428	$metal1_conn	$W=9e-08
+ $X=2.99 $Y=0.8975
Rk35	net1#7	net1#8	0.050630	$metal1_conn	$W=1.125e-07
+ $X=3.06 $Y=0.8075
Rk36	net1#6	net1#9	31.599215	$metal1_conn	$W=9e-08
+ $X=2.37 $Y=1.1125
Rk37	net1#7	net1#10	75.213516	$metal1_conn	$W=8e-08
+ $X=2.99 $Y=0.6575
Rk38	net1#8	net1#3	45.392246	$metal1_conn	$W=8e-08
+ $X=3.13 $Y=0.9225
Rk39	net11	net11#2	31.391340	$metal1_conn	$W=8.75e-08
+ $X=3.615 $Y=1.145
Rk40	net11#2	net11#3	75.158134	$metal1_conn
+ $W=9e-08	$X=3.615 $Y=0.6275
Rk41	net1#12	net1#13	75.452660	$metal1_conn
+ $W=8e-08	$X=3.965 $Y=-0.7375
Rk42	net1#13	net1#14	62.166523	$metal1_conn
+ $W=9e-08	$X=3.965 $Y=-1.1725
Rk43	XI18/net2#3	XI18/net2#4	75.298203	$metal1_conn
+ $W=8e-08	$X=3.58 $Y=-0.665
Rk44	XI18/net2#4	XI18/net2#5	31.334099	$metal1_conn
+ $W=8.5e-08	$X=3.58 $Y=-1.065
Rk45	XI18/net2#4	XI18/net2#2	45.767109	$metal1_conn
+ $W=8e-08	$X=3.75 $Y=-0.575
Rk46	net4#18	net4#9	22.500000	$metal1_conn	$W=8e-08
+ $X=4.05 $Y=1.085
Rk47	net2#3	net2#9	45.113499	$metal1_conn	$W=1.15e-07
+ $X=4.5725 $Y=-1
Rk48	net2#9	net2#10	0.210330	$metal1_conn	$W=1e-07
+ $X=4.3025 $Y=-0.89
Rk49	net2#10	net2#11	62.285446	$metal1_conn
+ $W=9e-08	$X=4.17 $Y=-1.08
Rk50	net2#10	net2#12	75.314606	$metal1_conn
+ $W=9e-08	$X=4.17 $Y=-0.68
Rk51	net11#4	net11#5	62.390598	$metal1_conn
+ $W=8e-08	$X=4.665 $Y=1.0275
Rk52	net11#5	net11#6	75.203789	$metal1_conn
+ $W=8e-08	$X=4.665 $Y=0.6175
Rk53	XI13/net2#3	XI13/net2#4	31.341597	$metal1_conn
+ $W=8.5e-08	$X=4.28 $Y=1.085
Rk54	XI13/net2#4	XI13/net2#5	75.298203	$metal1_conn
+ $W=8e-08	$X=4.28 $Y=0.685
Rk55	XI13/net2#4	XI13/net2#2	45.767109	$metal1_conn
+ $W=8e-08	$X=4.45 $Y=0.595
Rk56	Q#7	Q	0.033703	$metal1_conn	$W=1.3e-07
+ $X=4.845 $Y=-1.03
Rk57	Q	Q#8	31.241030	$metal1_conn	$W=9e-08
+ $X=4.815 $Y=-1.16
Rk58	Q	Q#9	75.349022	$metal1_conn	$W=8.75e-08
+ $X=4.815 $Y=-0.7425
Rk59	net3#11	net3#12	62.244038	$metal1_conn
+ $W=9e-08	$X=4.87 $Y=1.135
Rk60	net3#12	net3#13	75.324692	$metal1_conn
+ $W=8.75e-08	$X=4.87 $Y=0.7
Rk61	gnd!#1	gnd!#2	31.065598	$metal1_conn	$W=2.4e-07
+ $X=4.807 $Y=0.01
Rk62	gnd!#2	gnd!#3	0.025989	$metal1_conn	$W=2.4e-07
+ $X=4.673 $Y=0.01
Rk63	gnd!#3	gnd!#4	0.065348	$metal1_conn	$W=2.4e-07
+ $X=4.472 $Y=0.01
Rk64	gnd!#4	gnd!#5	0.074532	$metal1_conn	$W=2.4e-07
+ $X=4.2305 $Y=0.01
Rk65	gnd!#5	gnd!#6	0.082403	$metal1_conn	$W=2.4e-07
+ $X=3.9045 $Y=0.01
Rk66	gnd!#6	gnd!#7	0.088464	$metal1_conn	$W=2.4e-07
+ $X=3.598 $Y=0.01
Rk67	gnd!#7	gnd!#8	0.012121	$metal1_conn	$W=2.4e-07
+ $X=3.405 $Y=0.01
Rk68	gnd!#8	gnd!#9	0.056164	$metal1_conn	$W=2.4e-07
+ $X=3.3325 $Y=0.01
Rk69	gnd!#9	gnd!#10	0.091837	$metal1_conn	$W=2.4e-07
+ $X=2.907 $Y=0.01
Rk70	gnd!#10	gnd!#11	0.025989	$metal1_conn
+ $W=2.4e-07	$X=2.773 $Y=0.01
Rk71	gnd!#11	gnd!	0.040421	$metal1_conn	$W=2.4e-07
+ $X=2.618 $Y=0.01
Rk72	gnd!	gnd!#12	0.024927	$metal1_conn	$W=2.4e-07
+ $X=2.509 $Y=0.01
Rk73	gnd!#12	gnd!#13	0.077155	$metal1_conn
+ $W=2.4e-07	$X=2.3255 $Y=0.01
Rk74	gnd!#13	gnd!#14	0.079779	$metal1_conn
+ $W=2.4e-07	$X=1.9995 $Y=0.01
Rk75	gnd!#14	gnd!#15	0.100771	$metal1_conn
+ $W=2.4e-07	$X=1.6805 $Y=0.01
Rk76	gnd!#15	gnd!#16	0.056164	$metal1_conn
+ $W=2.4e-07	$X=1.3545 $Y=0.01
Rk77	gnd!#16	gnd!#17	0.074532	$metal1_conn
+ $W=2.4e-07	$X=1.1305 $Y=0.01
Rk78	gnd!#17	gnd!#18	0.056164	$metal1_conn
+ $W=2.4e-07	$X=0.9325 $Y=0.01
Rk79	gnd!#18	gnd!#19	0.091837	$metal1_conn
+ $W=2.4e-07	$X=0.535 $Y=0.01
Rk80	gnd!#19	gnd!#20	0.025743	$metal1_conn
+ $W=2.4e-07	$X=0.345 $Y=0.01
Rk81	gnd!#20	gnd!#1	31.038862	$metal1_conn	$W=2.4e-07
+ $X=0.25 $Y=0.01
Rk82	gnd!#3	gnd!#21	75.288597	$metal1_conn	$W=9e-08
+ $X=4.61 $Y=-0.285
Rk83	gnd!#5	gnd!#22	75.275475	$metal1_conn	$W=9e-08
+ $X=4.075 $Y=0.295
Rk84	gnd!#7	gnd!#23	75.301712	$metal1_conn	$W=9e-08
+ $X=3.41 $Y=0.305
Rk85	gnd!#8	gnd!#24	75.275475	$metal1_conn	$W=9e-08
+ $X=3.375 $Y=-0.275
Rk86	gnd!#11	gnd!#25	75.288597	$metal1_conn
+ $W=9e-08	$X=2.71 $Y=-0.285
Rk87	gnd!#13	gnd!#26	75.319305	$metal1_conn
+ $W=8e-08	$X=2.165 $Y=0.3125
Rk88	gnd!#15	gnd!#27	75.275475	$metal1_conn
+ $W=9e-08	$X=1.475 $Y=-0.275
Rk89	gnd!#17	gnd!#28	75.275475	$metal1_conn
+ $W=9e-08	$X=0.975 $Y=0.295
Rk90	gnd!#20	gnd!#29	75.368683	$metal1_conn
+ $W=9e-08	$X=0.31 $Y=-0.285
Rk91	gnd!#20	gnd!#30	75.368683	$metal1_conn
+ $W=9e-08	$X=0.31 $Y=0.305
Rk92	gnd!#1	gnd!#2	31.000000	$metal1_conn	$W=9e-08
+ $X=4.71 $Y=-0.05
Rk93	gnd!#1	gnd!#4	12.400000	$metal1_conn	$W=9e-08
+ $X=4.36 $Y=0.07
Rk94	gnd!#1	gnd!#6	8.857142	$metal1_conn	$W=9e-08
+ $X=3.76 $Y=0.07
Rk95	gnd!#1	gnd!#9	15.500000	$metal1_conn	$W=9e-08
+ $X=3.16 $Y=0.01
Rk96	gnd!#1	gnd!#10	31.000000	$metal1_conn	$W=9e-08
+ $X=2.81 $Y=-0.05
Rk97	gnd!#1	gnd!#12	12.400000	$metal1_conn	$W=9e-08
+ $X=2.46 $Y=0.07
Rk98	gnd!#1	gnd!#14	8.857142	$metal1_conn	$W=9e-08
+ $X=1.86 $Y=0.07
Rk99	gnd!#1	gnd!#16	12.400000	$metal1_conn	$W=9e-08
+ $X=1.26 $Y=0.07
Rk100	gnd!#1	gnd!#18	15.500000	$metal1_conn	$W=9e-08
+ $X=0.76 $Y=0.01
Rk101	gnd!#1	gnd!#19	31.000000	$metal1_conn	$W=9e-08
+ $X=0.41 $Y=0.01
Rk102	vdd!#1	vdd!#2	75.124496	$metal1_conn	$W=1.25e-07
+ $X=4.835 $Y=-1.76
Rk103	vdd!#2	vdd!#3	0.049604	$metal1_conn	$W=1.25e-07
+ $X=4.645 $Y=-1.76
Rk104	vdd!#3	vdd!#4	0.423097	$metal1_conn	$W=1.25e-07
+ $X=4.2 $Y=-1.76
Rk105	vdd!#4	vdd!#5	0.191531	$metal1_conn	$W=1.25e-07
+ $X=3.5525 $Y=-1.76
Rk106	vdd!#5	vdd!#6	0.281170	$metal1_conn	$W=1.25e-07
+ $X=3.1075 $Y=-1.76
Rk107	vdd!#6	vdd!#7	0.049604	$metal1_conn	$W=1.25e-07
+ $X=2.745 $Y=-1.76
Rk108	vdd!#7	vdd!	0.072014	$metal1_conn	$W=1.25e-07
+ $X=2.623 $Y=-1.76
Rk109	vdd!	vdd!#8	0.351083	$metal1_conn	$W=1.25e-07
+ $X=2.242 $Y=-1.76
Rk110	vdd!#8	vdd!#9	0.191531	$metal1_conn	$W=1.25e-07
+ $X=1.6525 $Y=-1.76
Rk111	vdd!#9	vdd!#10	0.356376	$metal1_conn	$W=1.25e-07
+ $X=1.1275 $Y=-1.76
Rk112	vdd!#10	vdd!#11	0.174601	$metal1_conn
+ $W=1.25e-07	$X=0.6 $Y=-1.76
Rk113	vdd!#11	vdd!#12	0.049604	$metal1_conn
+ $W=1.25e-07	$X=0.345 $Y=-1.76
Rk114	vdd!#12	vdd!#1	75.074501	$metal1_conn	$W=1.25e-07
+ $X=0.25 $Y=-1.76
Rk115	vdd!#3	vdd!#13	31.281286	$metal1_conn	$W=9e-08
+ $X=4.61 $Y=-1.5525
Rk116	vdd!#5	vdd!#14	31.271444	$metal1_conn	$W=9e-08
+ $X=3.375 $Y=-1.56
Rk117	vdd!#7	vdd!#15	31.281286	$metal1_conn	$W=9e-08
+ $X=2.71 $Y=-1.5525
Rk118	vdd!#9	vdd!#16	31.271444	$metal1_conn	$W=9e-08
+ $X=1.475 $Y=-1.56
Rk119	vdd!#10	vdd!#17	0.083374	$metal1_conn
+ $W=1e-07	$X=0.77 $Y=-1.6875
Rk120	vdd!#12	vdd!#18	31.281286	$metal1_conn
+ $W=9e-08	$X=0.31 $Y=-1.5525
Rk121	vdd!#1	vdd!#2	75.000000	$metal1_conn	$W=9e-08
+ $X=4.71 $Y=-1.76
Rk122	vdd!#1	vdd!#4	9.375000	$metal1_conn	$W=9e-08
+ $X=3.76 $Y=-1.76
Rk123	vdd!#1	vdd!#6	75.000000	$metal1_conn	$W=9e-08
+ $X=2.81 $Y=-1.76
Rk124	vdd!#1	vdd!#8	9.375000	$metal1_conn	$W=9e-08
+ $X=1.86 $Y=-1.76
Rk125	vdd!#1	vdd!#10	37.500000	$metal1_conn	$W=9e-08
+ $X=0.76 $Y=-1.76
Rk126	vdd!#1	vdd!#11	75.000000	$metal1_conn	$W=9e-08
+ $X=0.41 $Y=-1.76
Rk127	vdd!#19	vdd!#20	10.856018	$metal1_conn
+ $W=1.25e-07	$X=4.2025 $Y=1.78
Rk128	vdd!#20	vdd!#21	0.281170	$metal1_conn
+ $W=1.25e-07	$X=3.8075 $Y=1.78
Rk129	vdd!#21	vdd!#22	0.049604	$metal1_conn
+ $W=1.25e-07	$X=3.445 $Y=1.78
Rk130	vdd!#22	vdd!#23	0.124303	$metal1_conn
+ $W=1.25e-07	$X=3.35 $Y=1.78
Rk131	vdd!#23	vdd!#24	0.186552	$metal1_conn
+ $W=1.25e-07	$X=2.9075 $Y=1.78
Rk132	vdd!#24	vdd!#25	0.113875	$metal1_conn
+ $W=1.25e-07	$X=2.675 $Y=1.78
Rk133	vdd!#25	vdd!#26	0.193554	$metal1_conn
+ $W=1.25e-07	$X=2.355 $Y=1.78
Rk134	vdd!#26	vdd!#27	0.201491	$metal1_conn
+ $W=1.25e-07	$X=1.9775 $Y=1.78
Rk135	vdd!#27	vdd!#28	0.390727	$metal1_conn
+ $W=1.25e-07	$X=1.3525 $Y=1.78
Rk136	vdd!#28	vdd!#29	0.281170	$metal1_conn
+ $W=1.25e-07	$X=0.7075 $Y=1.78
Rk137	vdd!#29	vdd!#30	0.049604	$metal1_conn
+ $W=1.25e-07	$X=0.345 $Y=1.78
Rk138	vdd!#30	vdd!#19	75.074501	$metal1_conn
+ $W=1.25e-07	$X=0.25 $Y=1.78
Rk139	vdd!#20	vdd!#31	31.271444	$metal1_conn
+ $W=9e-08	$X=4.075 $Y=1.58
Rk140	vdd!#22	vdd!#32	31.281286	$metal1_conn
+ $W=9e-08	$X=3.41 $Y=1.5725
Rk141	vdd!#24	vdd!#33	31.311541	$metal1_conn
+ $W=9e-08	$X=2.785 $Y=1.56
Rk142	vdd!#25	vdd!#34	0.049943	$metal1_conn
+ $W=1e-07	$X=2.555 $Y=1.7075
Rk143	vdd!#26	vdd!#35	31.300970	$metal1_conn
+ $W=9e-08	$X=2.165 $Y=1.5575
Rk144	vdd!#28	vdd!#36	31.271444	$metal1_conn
+ $W=9e-08	$X=0.975 $Y=1.58
Rk145	vdd!#30	vdd!#37	31.281286	$metal1_conn
+ $W=9e-08	$X=0.31 $Y=1.5725
Rk146	vdd!#19	vdd!#21	75.000000	$metal1_conn
+ $W=9e-08	$X=3.51 $Y=1.78
Rk147	vdd!#19	vdd!#23	37.500000	$metal1_conn
+ $W=9e-08	$X=3.16 $Y=1.78
Rk148	vdd!#19	vdd!#27	6.250000	$metal1_conn
+ $W=9e-08	$X=1.76 $Y=1.78
Rk149	vdd!#19	vdd!#29	75.000000	$metal1_conn
+ $W=9e-08	$X=0.41 $Y=1.78
Rl1	RST#1	RST#2	168.944901	$poly_conn	$W=3.9e-08
+ $X=0.4125 $Y=-0.7495
Rl2	RST#2	RST#3	2.016559	$poly_conn	$W=9.4e-08
+ $X=0.39 $Y=-1
Rl3	RST#2	RST#4	70.867966	$poly_conn	$W=3.9e-08
+ $X=0.4125 $Y=-1.1225
Rl4	CLK#1	CLK#2	299.790253	$poly_conn	$W=3.9e-08
+ $X=1.4705 $Y=1.5675
Rl5	CLK#2	CLK#3	259.112518	$poly_conn	$W=3.9e-08
+ $X=0.4125 $Y=1.4975
Rl6	CLK#3	CLK#4	70.867966	$poly_conn	$W=3.9e-08
+ $X=0.4125 $Y=1.143
Rl7	CLK#4	CLK#5	2.016559	$poly_conn	$W=9.4e-08
+ $X=0.39 $Y=1.02
Rl8	CLK#2	CLK#6	28.857958	$poly_conn	$W=3.9e-08
+ $X=1.0775 $Y=1.505
Rl9	CLK#6	CLK#7	117.021820	$poly_conn	$W=3.9e-08
+ $X=1.0775 $Y=1.098
Rl10	CLK#7	CLK#8	136.252594	$poly_conn	$W=3.9e-08
+ $X=1.0775 $Y=0.7075
Rl11	CLK#4	CLK#9	168.944901	$poly_conn	$W=3.9e-08
+ $X=0.4125 $Y=0.77
Rl13	XI9/net2	XI9/net2#2	26.903002	$poly_conn
+ $W=3.9e-08	$X=1.6675 $Y=0.4005
Rl14	CLK#11	CLK#12	330.334869	$poly_conn	$W=3.9e-08
+ $X=1.933 $Y=-1.5475
Rl15	CLK#12	CLK#13	117.021820	$poly_conn	$W=3.9e-08
+ $X=1.5775 $Y=-1.078
Rl16	CLK#13	CLK#14	1.266559	$poly_conn	$W=9.4e-08
+ $X=1.555 $Y=-0.895
Rl17	CLK#13	CLK#15	136.252594	$poly_conn	$W=3.9e-08
+ $X=1.5775 $Y=-0.6875
Rl18	XI15/net2	XI15/net2#2	26.903002	$poly_conn
+ $W=3.9e-08	$X=2.1675 $Y=-0.3805
Rl19	net3	net3#2	142.021820	$poly_conn	$W=3.9e-08
+ $X=2.2675 $Y=1.0205
Rl20	net3#2	net3#3	5.112304	$poly_conn	$W=9.4e-08
+ $X=2.24 $Y=0.805
Rl21	net3#2	net3#4	80.483353	$poly_conn	$W=3.9e-08
+ $X=2.2675 $Y=0.67
Rl22	Q#1	Q#2	168.944901	$poly_conn	$W=3.9e-08
+ $X=2.8125 $Y=-0.7495
Rl23	Q#2	Q#3	2.016559	$poly_conn	$W=9.4e-08
+ $X=2.79 $Y=-1
Rl24	Q#2	Q#4	70.867966	$poly_conn	$W=3.9e-08
+ $X=2.8125 $Y=-1.1225
Rl25	net6	net6#2	149.714111	$poly_conn	$W=3.9e-08
+ $X=2.8875 $Y=1.0155
Rl26	net6#2	net6#3	5.112304	$poly_conn	$W=9.4e-08
+ $X=2.86 $Y=0.79
Rl27	net6#2	net6#4	74.714127	$poly_conn	$W=3.9e-08
+ $X=2.8875 $Y=0.6625
Rl28	net1	net1#2	70.867966	$poly_conn	$W=3.9e-08
+ $X=3.5125 $Y=1.143
Rl29	net1#2	net1#3	2.016559	$poly_conn	$W=9.4e-08
+ $X=3.49 $Y=1.02
Rl30	net1#2	net1#4	168.944901	$poly_conn	$W=3.9e-08
+ $X=3.5125 $Y=0.77
Rl31	net4	net4#2	330.334869	$poly_conn	$W=3.9e-08
+ $X=3.833 $Y=-1.5475
Rl32	net4#2	net4#3	117.021820	$poly_conn	$W=3.9e-08
+ $X=3.4775 $Y=-1.078
Rl33	net4#3	net4#4	1.266559	$poly_conn	$W=9.4e-08
+ $X=3.455 $Y=-0.895
Rl34	net4#3	net4#5	136.252594	$poly_conn	$W=3.9e-08
+ $X=3.4775 $Y=-0.6875
Rl35	XI18/net2	XI18/net2#2	26.903002	$poly_conn
+ $W=3.9e-08	$X=4.0675 $Y=-0.3805
Rl36	net2	net2#2	168.944901	$poly_conn	$W=3.9e-08
+ $X=4.7125 $Y=-0.7495
Rl37	net2#2	net2#3	2.016559	$poly_conn	$W=9.4e-08
+ $X=4.69 $Y=-1
Rl38	net2#2	net2#4	70.867966	$poly_conn	$W=3.9e-08
+ $X=4.7125 $Y=-1.1225
Rl39	net4#6	net4#7	330.334869	$poly_conn	$W=3.9e-08
+ $X=4.533 $Y=1.5675
Rl40	net4#7	net4#8	51.637199	$poly_conn	$W=3.9e-08
+ $X=4.1775 $Y=1.183
Rl41	net4#8	net4#9	2.766559	$poly_conn	$W=9.4e-08
+ $X=4.155 $Y=1.085
Rl42	net4#8	net4#10	57.120556	$poly_conn	$W=3.9e-08
+ $X=4.1775 $Y=1
Rl43	net4#10	net4#11	136.252594	$poly_conn
+ $W=3.9e-08	$X=4.1775 $Y=0.7075
Rl45	XI13/net2	XI13/net2#2	26.903002	$poly_conn
+ $W=3.9e-08	$X=4.7675 $Y=0.4005
*
*       CAPACITOR CARDS
*
*
C1	XI18/net2#3	gnd!#1	1.86369e-18	$X=3.569 $Y=-0.501
C2	net1#13	net13#7	4.14305e-18	$X=3.1075 $Y=-1.21
C3	Q	vdd!	1.31029e-17	$X=4.814 $Y=-0.951
C4	net2#3	net2#2	2.98511e-18	$X=4.682 $Y=-0.9625
C5	RST	vdd!	5.81331e-18	$X=0.2465 $Y=-1
C6	CLK#17	net4#14	2.74486e-18	$X=0.4995 $Y=1.0425
C7	gnd!#27	XI15/net2#2	5.602e-18	$X=1.717 $Y=-0.383
C8	net1#8	net1#3	4.10521e-18	$X=3.361 $Y=0.905
C9	vdd!#20	net4#7	3.96663e-18	$X=4.1385 $Y=1.507
C10	net4#23	vdd!#1	2.88436e-18	$X=2.7375 $Y=-0.93
C11	net1#8	net1#2	2.93547e-18	$X=3.4715 $Y=0.906
C12	vdd!#28	CLK#2	9.21472e-18	$X=1.045 $Y=1.597
C13	Q	net2#4	7.24113e-19	$X=4.747 $Y=-1.1985
C14	vdd!#14	net4#17	1.97548e-18	$X=3.3095 $Y=-0.967
C15	XI13/net2#5	XI13/net2	4.40471e-19	$X=4.6395 $Y=0.524
C16	gnd!#1	CLK#9	1.93317e-18	$X=0.4185 $Y=0.5575
C17	vdd!#1	net1#14	3.29769e-18	$X=3.9515 $Y=-1.2635
C18	net6#6	RST#1	4.15471e-18	$X=0.431 $Y=-0.5265
C19	net11	vdd!#19	7.80875e-18	$X=3.562 $Y=1.304
C20	Q#9	net2	5.69867e-18	$X=4.7455 $Y=-0.539
C21	net3#7	net3	6.82915e-19	$X=2.041 $Y=1.103
C22	net4#6	vdd!	2.79044e-17	$X=4.7665 $Y=1.3595
C23	CLK#17	RST#1	2.71671e-19	$X=0.3825 $Y=-0.367
C24	D	net3#3	1.98176e-19	$X=1.812 $Y=0.859
C25	net2#4	vdd!	7.77405e-18	$X=4.7115 $Y=-1.3285
C26	vdd!#44	vdd!#40	1.01032e-17	$X=2.519 $Y=1.6545
C27	net1#13	Q#3	9.40213e-19	$X=2.8505 $Y=-1.0065
C28	Q#6	vdd!#5	1.41978e-17	$X=3.2485 $Y=-1.592
C29	net4#7	vdd!	1.87222e-17	$X=4.1765 $Y=1.386
C30	net3#16	gnd!#22	3.05405e-18	$X=4.1565 $Y=0.497
C31	net4#25	net3#16	1.60305e-17	$X=4.094 $Y=0.9055
C32	net4	vdd!	1.64873e-17	$X=4.0665 $Y=-0.2125
C33	gnd!#1	net4#14	1.65237e-18	$X=0.593 $Y=1.0485
C34	XI9/net2#2	D#1	2.17781e-17	$X=1.5765 $Y=0.445
C35	CLK#17	net6#6	3.05018e-17	$X=0.3605 $Y=0.387
C36	net1	vdd!	7.00731e-18	$X=3.5115 $Y=1.3485
C37	net11#4	net4#8	6.76608e-19	$X=4.267 $Y=1.118
C38	net4#2	vdd!	2.08282e-17	$X=3.4765 $Y=-1.324
C39	net13#6	Q#2	8.91348e-19	$X=2.795 $Y=-0.8795
C40	net6	vdd!	8.841e-18	$X=2.8865 $Y=1.2725
C41	net2#3	Q	2.3363e-17	$X=4.7095 $Y=-0.9805
C42	Q#4	vdd!	7.18285e-18	$X=2.812 $Y=-1.3285
C43	net3	vdd!	9.72314e-18	$X=2.267 $Y=1.2725
C44	gnd!#21	net2	3.78016e-18	$X=4.676 $Y=-0.5085
C45	gnd!#1	RST#1	1.91007e-18	$X=0.4185 $Y=-0.538
C46	net4#21	XI9/net2#3	4.93129e-19	$X=0.836 $Y=1.179
C47	gnd!#3	gnd!#1	6.87121e-18	$X=4.59 $Y=-0.0765
C48	CLK#11	vdd!	1.32452e-17	$X=2.167 $Y=-1.34
C49	net3#8	net3#9	2.35344e-17	$X=1.886 $Y=0.5285
C50	CLK#1	vdd!	1.6997e-17	$X=1.667 $Y=1.3595
C51	gnd!#3	XI13/net2#2	1.54035e-17	$X=4.6515 $Y=0.136
C52	CLK#12	vdd!	1.52918e-17	$X=1.577 $Y=-1.324
C53	CLK#6	vdd!	4.47746e-18	$X=1.077 $Y=1.301
C54	CLK#3	vdd!	1.53763e-17	$X=0.412 $Y=1.366
C55	net3#16	net1#12	9.76041e-19	$X=4.077 $Y=-0.297
C56	RST#4	vdd!	7.83463e-18	$X=0.412 $Y=-1.3285
C57	net2#15	Q	2.58146e-18	$X=4.6985 $Y=-1.016
C58	net3#10	vdd!#35	8.30786e-18	$X=1.911 $Y=1.286
C59	Q#7	Q	1.14921e-17	$X=4.849 $Y=-1.0195
C60	net6#6	gnd!#1	1.9057e-17	$X=0.6845 $Y=-0.3805
C61	net4#21	CLK#5	9.93225e-19	$X=0.4355 $Y=1.043
C62	net2#12	net2	2.31495e-18	$X=4.5125 $Y=-0.528
C63	net2#9	Q	5.14659e-18	$X=4.6425 $Y=-0.9535
C64	gnd!#22	XI13/net2#5	1.45925e-17	$X=4.177 $Y=0.489
C65	XI9/net2#5	XI9/net2#2	1.31675e-17	$X=1.3355 $Y=0.4435
C66	gnd!#1	XI13/net2#2	2.05659e-17	$X=4.6705 $Y=0.3165
C67	net3#16	net11#3	7.51766e-19	$X=3.7445 $Y=0.55
C68	gnd!#17	CLK#8	2.91167e-18	$X=1.0535 $Y=0.42
C69	gnd!#5	XI13/net2#2	2.31793e-18	$X=4.465 $Y=0.2365
C70	vdd!#1	XI18/net2	6.14408e-19	$X=4.059 $Y=-0.512
C71	Q	gnd!#1	1.11255e-18	$X=4.8015 $Y=-0.946
C72	XI13/net2#2	vdd!	2.06639e-18	$X=4.6875 $Y=0.3195
C73	gnd!#1	net1#10	4.64445e-18	$X=2.982 $Y=0.54
C74	Q#6	vdd!#7	6.0834e-18	$X=2.734 $Y=-1.6425
C75	net2#3	vdd!	5.15277e-18	$X=4.6395 $Y=-1
C76	net2#11	Q	1.20826e-18	$X=4.472 $Y=-1.102
C77	net4#23	gnd!#13	1.32971e-18	$X=2.3495 $Y=-0.198
C78	net4#9	vdd!	7.43327e-18	$X=4.0435 $Y=1.0845
C79	gnd!#28	XI9/net2#2	5.50316e-18	$X=1.217 $Y=0.402
C80	net1#3	vdd!	8.72482e-18	$X=3.4235 $Y=1.0195
C81	vdd!#1	XI18/net2#5	3.68215e-18	$X=3.5475 $Y=-1.305
C82	net6#9	net3#2	1.2053e-18	$X=2.269 $Y=0.8395
C83	CLK#17	gnd!#1	1.26964e-17	$X=0.2105 $Y=0.9685
C84	XI9/net2#4	D	2.14408e-17	$X=1.477 $Y=0.8915
C85	net4#4	vdd!	3.74434e-18	$X=3.4105 $Y=-0.895
C86	XI13/net2#5	net4#11	3.5925e-18	$X=4.2105 $Y=0.5195
C87	D#1	net3#8	2.03898e-17	$X=1.668 $Y=0.528
C88	CLK#20	gnd!#15	2.74962e-18	$X=1.3315 $Y=-0.3865
C89	D	net3#7	2.84081e-17	$X=1.656 $Y=0.898
C90	Q#3	vdd!	6.56975e-18	$X=2.739 $Y=-1
C91	gnd!#8	gnd!#5	3.05569e-18	$X=3.74 $Y=0.094
C92	CLK#14	gnd!#27	3.99436e-18	$X=1.498 $Y=-0.708
C93	net3#3	vdd!	1.00053e-18	$X=2.1705 $Y=0.8045
C94	Q#3	net13#6	7.75993e-18	$X=2.7435 $Y=-0.906
C95	net2#3	gnd!#1	8.91077e-19	$X=4.6315 $Y=-0.9965
C96	net4#28	XI15/net2#2	1.00636e-18	$X=1.9275 $Y=-0.241
C97	XI9/net2#2	vdd!	2.06639e-18	$X=1.588 $Y=0.3195
C98	gnd!#5	gnd!#1	9.22382e-18	$X=4.0525 $Y=0.09
C99	CLK#14	vdd!	3.01238e-18	$X=1.511 $Y=-0.895
C100	CLK#20	RST	4.2998e-18	$X=0.2825 $Y=-0.9985
C101	XI9/net2#3	vdd!#28	5.98414e-18	$X=1.0945 $Y=1.471
C102	net4#28	vdd!#28	2.49171e-18	$X=0.9655 $Y=1.367
C103	CLK#5	vdd!	4.95466e-18	$X=0.341 $Y=1.0195
C104	vdd!#44	net4#21	2.76065e-18	$X=0.818 $Y=1.1675
C105	RST#3	vdd!	4.46521e-18	$X=0.343 $Y=-1
C106	vdd!#1	Q	1.21411e-18	$X=4.7785 $Y=-0.9635
C107	RST	gnd!#1	1.423e-18	$X=0.249 $Y=-0.999
C108	vdd!#44	vdd!	6.72525e-17	$X=2.108 $Y=1.6545
C109	vdd!#9	vdd!#1	8.87775e-18	$X=1.5055 $Y=-1.693
C110	vdd!#42	vdd!#38	1.10395e-17	$X=0.7695 $Y=-1.5855
C111	XI9/net2#3	CLK#2	1.93445e-18	$X=1.116 $Y=1.4535
C112	net13#4	gnd!#1	4.94828e-18	$X=2.9075 $Y=-0.5015
C113	vdd!#42	vdd!	3.32666e-17	$X=0.7695 $Y=-1.027
C114	net4#7	net4#6	2.57723e-18	$X=4.486 $Y=1.372
C115	net3#16	vdd!	7.36808e-18	$X=4.552 $Y=0.7095
C116	gnd!#22	net4#11	3.71953e-18	$X=4.143 $Y=0.496
C117	net4#25	vdd!#40	1.47231e-18	$X=2.6865 $Y=1.587
C118	net2#15	vdd!	2.76439e-17	$X=4.174 $Y=-1.31
C119	net4#25	vdd!	1.00635e-17	$X=3.676 $Y=1.0845
C120	net4#23	vdd!	3.4775e-18	$X=2.759 $Y=-0.8575
C121	gnd!#21	XI18/net2	7.73636e-19	$X=4.2065 $Y=-0.4925
C122	XI13/net2#4	net11#4	1.80766e-18	$X=4.547 $Y=1.0945
C123	Q#7	net2#10	1.23106e-18	$X=4.303 $Y=-0.9525
C124	net2#13	vdd!	2.38601e-17	$X=2.597 $Y=-1.335
C125	net4	net2#4	2.63957e-18	$X=4.544 $Y=-1.038
C126	XI13/net2#4	net4#8	9.76932e-19	$X=4.2015 $Y=1.063
C127	XI15/net2#5	net13#3	9.53815e-18	$X=1.915 $Y=-1.248
C128	net4#21	vdd!	3.90282e-18	$X=0.5985 $Y=1.0845
C129	net4#23	gnd!#15	1.32094e-18	$X=1.871 $Y=-0.3145
C130	Q#7	vdd!	4.31813e-17	$X=5.009 $Y=-1.335
C131	net1#2	net4#9	3.07294e-18	$X=3.6605 $Y=0.9915
C132	net3#12	vdd!	9.88946e-18	$X=4.909 $Y=0.9445
C133	Q#6	Q#3	1.04929e-18	$X=2.761 $Y=-1.0415
C134	net11#5	vdd!	2.14505e-18	$X=4.5665 $Y=0.7885
C135	net2#9	vdd!	5.77726e-18	$X=4.474 $Y=-0.955
C136	net11#3	net4#11	1.07867e-18	$X=3.96 $Y=0.52
C137	net4#28	XI15/net2#4	9.62202e-19	$X=1.6415 $Y=-0.7145
C138	net1	net4#7	1.6211e-18	$X=3.7495 $Y=1.3615
C139	net1#13	vdd!	1.25277e-17	$X=3.6675 $Y=-1.052
C140	XI15/net2#4	CLK#12	1.87922e-18	$X=1.653 $Y=-1.135
C141	gnd!#1	XI11/net3	5.45353e-18	$X=2.7875 $Y=0.482
C142	net11#2	vdd!	2.61864e-18	$X=3.7465 $Y=0.789
C143	net6#9	net3#3	9.74978e-18	$X=2.1895 $Y=0.801
C144	Q#6	vdd!#14	1.92044e-18	$X=3.263 $Y=-1.3505
C145	vdd!#1	XI18/net2#4	1.22182e-18	$X=3.637 $Y=-0.881
C146	net4#17	vdd!	2.31582e-18	$X=3.294 $Y=-0.88
C147	vdd!#5	net4#2	3.37265e-18	$X=3.438 $Y=-1.462
C148	net2#12	XI18/net2	2.88452e-18	$X=4.0915 $Y=-0.5065
C149	net1#8	vdd!	2.91483e-18	$X=3.134 $Y=0.4925
C150	vdd!#18	RST	3.2623e-18	$X=0.2545 $Y=-1.0415
C151	net13#6	vdd!	9.0585e-19	$X=2.7505 $Y=-0.73
C152	vdd!#1	RST	1.17371e-18	$X=0.2535 $Y=-1.0025
C153	net11#3	XI13/net2#5	1.46659e-18	$X=3.916 $Y=0.523
C154	CLK#20	gnd!#17	1.93249e-18	$X=0.999 $Y=-0.184
C155	Q#6	vdd!	3.11278e-17	$X=2.9105 $Y=-1.3275
C156	net1#12	net2#12	2.03898e-17	$X=4.0725 $Y=-0.5155
C157	vdd!#34	vdd!	4.41285e-18	$X=2.554 $Y=1.618
C158	net4#2	net4	3.59433e-18	$X=3.7205 $Y=-0.8655
C159	net2#15	vdd!#3	1.13114e-18	$X=4.3295 $Y=-1.6345
C160	D	net3#2	2.29448e-19	$X=1.971 $Y=0.8665
C161	net2#6	vdd!	3.65117e-18	$X=2.2695 $Y=-0.952
C162	net1#13	net13#5	6.09907e-18	$X=3.012 $Y=-0.8335
C163	net3#14	gnd!#8	1.9906e-18	$X=3.063 $Y=0.228
C164	net13#2	vdd!	2.57956e-18	$X=2.1745 $Y=-0.7645
C165	net3#14	net4#25	2.73956e-17	$X=3.0485 $Y=0.7915
C166	net2#13	net4#23	3.82888e-17	$X=2.6695 $Y=-1.121
C167	net2#10	Q	2.19563e-18	$X=4.4705 $Y=-0.9135
C168	CLK#20	vdd!	2.2838e-17	$X=1.0695 $Y=-0.965
C169	vdd!#13	net2#3	7.057e-18	$X=4.632 $Y=-1.1035
C170	vdd!#17	vdd!	6.35037e-18	$X=0.7695 $Y=-1.5985
C171	vdd!#38	vdd!#1	6.8804e-18	$X=0.7845 $Y=-1.6365
C172	net4#14	vdd!	6.10834e-18	$X=0.582 $Y=1.0545
C173	gnd!#20	gnd!#17	2.29002e-18	$X=0.5965 $Y=0.0445
C174	net6#6	vdd!	2.13163e-18	$X=0.627 $Y=-0.3925
C175	net6	net1	2.03232e-18	$X=3.234 $Y=1.3145
C176	CLK#17	vdd!	9.3292e-18	$X=0.1545 $Y=0.992
C177	net1#12	XI18/net2	2.84284e-18	$X=4.044 $Y=-0.51
C178	net1#6	net11	7.58511e-19	$X=3.0985 $Y=1.0965
C179	net2#6	Q#3	7.3062e-19	$X=2.557 $Y=-0.9815
C180	net4#9	XI13/net2#4	6.46387e-18	$X=4.186 $Y=0.9935
C181	net3#11	vdd!	9.223e-18	$X=4.864 $Y=1.2625
C182	Q#8	vdd!	1.06365e-18	$X=4.809 $Y=-1.306
C183	CLK#20	gnd!#27	1.89146e-18	$X=1.4115 $Y=-0.524
C184	net11#4	vdd!	3.25767e-18	$X=4.669 $Y=1.239
C185	net1#5	vdd!#19	6.22583e-18	$X=2.9635 $Y=1.306
C186	XI13/net2#3	vdd!	4.1189e-18	$X=4.274 $Y=1.3135
C187	net4#9	net4#8	1.44943e-18	$X=4.1555 $Y=1.0895
C188	net4#21	vdd!#19	4.71856e-18	$X=0.64 $Y=1.101
C189	net2#11	vdd!	1.02031e-18	$X=4.164 $Y=-1.2375
C190	net13#6	vdd!#15	1.11308e-18	$X=2.7345 $Y=-1.004
C191	vdd!#31	vdd!	3.04784e-18	$X=4.079 $Y=1.377
C192	Q#4	net4#2	1.75518e-18	$X=3.0335 $Y=-1.327
C193	net6#9	XI9/net2#4	8.679e-18	$X=1.512 $Y=0.8565
C194	net11	vdd!	2.98403e-18	$X=3.609 $Y=1.286
C195	RST	gnd!#29	1.64369e-18	$X=0.259 $Y=-0.899
C196	gnd!#27	XI15/net2#3	1.47957e-17	$X=1.577 $Y=-0.47
C197	XI18/net2#5	vdd!	1.53033e-18	$X=3.574 $Y=-1.2935
C198	XI13/net2	net4#6	9.07156e-19	$X=4.767 $Y=0.7505
C199	vdd!#32	vdd!	1.99341e-18	$X=3.414 $Y=1.3635
C200	XI18/net2#2	gnd!#1	1.79592e-17	$X=3.976 $Y=-0.2975
C201	XI18/net2#3	XI18/net2	3.48131e-19	$X=3.939 $Y=-0.505
C202	gnd!#8	gnd!#1	6.07138e-18	$X=3.41 $Y=0.095
C203	vdd!#36	CLK#2	2.66898e-18	$X=1.0365 $Y=1.4775
C204	vdd!#14	vdd!	2.68566e-18	$X=3.379 $Y=-1.3575
C205	net1#5	vdd!	1.21703e-18	$X=2.984 $Y=1.291
C206	net13#7	vdd!	1.93281e-18	$X=2.909 $Y=-1.2655
C207	net3#16	net3#12	1.11917e-17	$X=4.854 $Y=0.908
C208	net6#9	XI9/net2#2	4.63761e-18	$X=1.7485 $Y=0.425
C209	Q#6	net13#7	6.99302e-18	$X=2.9095 $Y=-1.2825
C210	vdd!#33	vdd!	2.4045e-18	$X=2.789 $Y=1.342
C211	XI9/net2#3	vdd!#35	1.89189e-18	$X=1.675 $Y=1.3255
C212	net4#25	gnd!#23	1.09497e-18	$X=3.461 $Y=0.5825
C213	net3	net6	2.95394e-18	$X=2.5735 $Y=1.2725
C214	net2#15	Q#7	4.26606e-17	$X=4.588 $Y=-1.3225
C215	gnd!#22	net1#4	1.53034e-18	$X=3.722 $Y=0.5205
C216	vdd!#15	vdd!	2.11926e-18	$X=2.714 $Y=-1.344
C217	D#2	net3#10	1.87848e-17	$X=1.6685 $Y=1.2545
C218	gnd!#1	XI11/net3#2	1.13516e-17	$X=2.3655 $Y=0.482
C219	net1#9	vdd!	5.85979e-18	$X=2.3645 $Y=1.243
C220	XI13/net2#3	net4#8	1.31168e-18	$X=4.189 $Y=1.1185
C221	net2#7	vdd!	3.8805e-18	$X=2.2645 $Y=-1.2565
C222	vdd!#20	vdd!#19	7.69781e-18	$X=4.0155 $Y=1.712
C223	vdd!#44	vdd!#22	1.8058e-18	$X=3.306 $Y=1.7015
C224	vdd!#35	vdd!	2.97389e-18	$X=2.1695 $Y=1.3375
C225	net13#3	vdd!	3.25871e-18	$X=2.0695 $Y=-1.2185
C226	net3#10	vdd!	2.0274e-18	$X=1.7645 $Y=1.257
C227	vdd!#42	vdd!#12	2.26696e-18	$X=0.347 $Y=-1.6325
C228	XI15/net2#5	vdd!	3.16392e-18	$X=1.6745 $Y=-1.2935
C229	net4#28	net3#10	8.64293e-19	$X=1.687 $Y=1.1515
C230	vdd!#16	vdd!	4.10737e-18	$X=1.4795 $Y=-1.3575
C231	XI9/net2#3	vdd!	2.20082e-18	$X=1.1745 $Y=1.3135
C232	net3#16	net11#5	2.61023e-17	$X=4.562 $Y=0.763
C233	gnd!#1	net1#3	2.19998e-18	$X=3.4185 $Y=1.013
C234	net6#7	vdd!	1.0754e-17	$X=0.5095 $Y=-1.266
C235	net11#3	net1#4	2.67487e-18	$X=3.5515 $Y=0.5445
C236	vdd!#37	vdd!	1.30977e-17	$X=0.3145 $Y=1.3635
C237	net3#14	gnd!#11	1.07754e-18	$X=2.6335 $Y=0.0495
C238	vdd!#18	vdd!	1.3306e-17	$X=0.3145 $Y=-1.344
C239	vdd!#19	vdd!	1.12087e-16	$X=2.3265 $Y=1.7795
C240	vdd!#1	vdd!	1.04477e-16	$X=2.4875 $Y=-1.758
C241	XI9/net2#4	vdd!#28	1.22878e-18	$X=1.152 $Y=1.2
C242	net11#3	gnd!#22	4.03806e-18	$X=3.826 $Y=0.492
C243	net4#4	XI18/net2#4	2.42975e-17	$X=3.4845 $Y=-0.885
C244	Q	net2#2	6.0068e-18	$X=4.7445 $Y=-0.9405
C245	net4#9	XI13/net2#3	1.01343e-17	$X=4.143 $Y=1.183
C246	net4	XI18/net2	1.12939e-18	$X=4.067 $Y=-0.4545
C247	net11#4	net3#11	1.69488e-17	$X=4.775 $Y=1.2515
C248	net1#6	net6#3	1.90351e-18	$X=2.794 $Y=0.831
C249	net13#2	XI15/net2#2	2.43173e-18	$X=2.1255 $Y=-0.503
C250	net6#9	net1#9	4.88274e-18	$X=2.342 $Y=1.102
C251	Q#7	vdd!#1	2.05284e-17	$X=4.839 $Y=-1.364
C252	net4#25	net3#12	8.80819e-19	$X=4.7035 $Y=0.9675
C253	net4#28	XI9/net2#2	1.82051e-18	$X=1.497 $Y=0.292
C254	gnd!#23	net1#4	3.87618e-18	$X=3.476 $Y=0.5275
C255	CLK#12	CLK#11	3.59433e-18	$X=1.902 $Y=-1.333
C256	vdd!#1	net13#7	6.05114e-18	$X=2.898 $Y=-1.279
C257	Q#6	vdd!#15	6.63074e-18	$X=2.7635 $Y=-1.34
C258	net4#28	vdd!#19	3.45333e-18	$X=1.16 $Y=0.393
C259	vdd!#34	vdd!#33	4.79279e-18	$X=2.602 $Y=1.562
C260	net3#12	vdd!#19	9.26111e-19	$X=4.862 $Y=0.9595
C261	net11#5	XI13/net2#4	3.43635e-17	$X=4.4475 $Y=0.842
C262	Q#3	net13#5	7.35884e-18	$X=2.8225 $Y=-0.905
C263	net2#15	net2#9	1.09673e-17	$X=4.421 $Y=-1.018
C264	net13#5	net4#17	6.28106e-18	$X=3.174 $Y=-0.855
C265	vdd!#44	vdd!#25	4.27054e-18	$X=2.49 $Y=1.756
C266	net2#6	net13#7	1.29206e-18	$X=2.5115 $Y=-1.071
C267	CLK#6	CLK#1	2.88533e-18	$X=1.307 $Y=1.3235
C268	net3#14	gnd!#13	1.70263e-18	$X=2.2405 $Y=0.2355
C269	net1#10	net1#4	1.00279e-18	$X=3.301 $Y=0.5525
C270	net4#9	vdd!#31	1.26513e-17	$X=4.0595 $Y=1.213
C271	vdd!#16	XI15/net2#5	2.37627e-17	$X=1.575 $Y=-1.3265
C272	XI18/net2#2	gnd!#3	2.69465e-18	$X=4.2745 $Y=-0.1975
C273	XI18/net2#3	net4#5	3.71991e-18	$X=3.5105 $Y=-0.5005
C274	XI13/net2#2	net4#6	1.03046e-18	$X=4.737 $Y=0.968
C275	net6#6	gnd!#15	1.4438e-18	$X=1.2075 $Y=-0.173
C276	net6#2	net1#3	8.46099e-19	$X=3.046 $Y=0.892
C277	XI18/net2#4	net1#13	2.77729e-17	$X=3.665 $Y=-0.9055
C278	gnd!#11	gnd!#1	4.40936e-18	$X=2.708 $Y=-0.0765
C279	vdd!#44	vdd!#26	3.59568e-18	$X=2.1535 $Y=1.69
C280	XI9/net2#2	net3#9	7.60937e-19	$X=1.859 $Y=0.479
C281	gnd!#30	CLK#5	4.23101e-18	$X=0.33 $Y=0.793
C282	net2#10	net2#9	7.23526e-18	$X=4.3135 $Y=-0.9155
C283	XI11/net3	net1#4	5.32212e-19	$X=3.2975 $Y=0.5375
C284	vdd!#42	XI15/net2#3	1.66106e-18	$X=1.5615 $Y=-0.569
C285	XI9/net2#4	vdd!	3.36472e-18	$X=1.2645 $Y=0.8795
C286	RST#4	CLK#12	3.99726e-19	$X=0.8005 $Y=-1.327
C287	net6#9	vdd!#35	1.14441e-18	$X=2.1995 $Y=1.2
C288	CLK#3	CLK#6	1.32376e-18	$X=0.8415 $Y=1.3235
C289	net1#3	net1#2	2.81622e-18	$X=3.485 $Y=0.975
C290	XI15/net2#4	vdd!	5.42755e-18	$X=1.7645 $Y=-0.86
C291	net11#5	vdd!#19	3.92894e-18	$X=4.4635 $Y=0.834
C292	net3#16	net11#2	9.70289e-18	$X=4.0085 $Y=0.763
C293	gnd!#24	net4#5	3.82991e-18	$X=3.443 $Y=-0.477
C294	vdd!#24	net6	1.76656e-18	$X=2.8475 $Y=1.436
C295	vdd!#13	Q#8	2.1577e-17	$X=4.7165 $Y=-1.3245
C296	net3#6	vdd!	1.5102e-18	$X=1.9445 $Y=0.79
C297	net1#13	net2#15	2.12739e-17	$X=3.9325 $Y=-1.187
C298	net11	net4#9	7.045e-18	$X=3.865 $Y=1.167
C299	Q#6	net2#7	1.74122e-18	$X=2.3555 $Y=-1.267
C300	net3#7	vdd!	3.08216e-18	$X=1.7695 $Y=0.8995
C301	XI18/net2#2	gnd!#5	1.83925e-17	$X=4.019 $Y=-0.158
C302	net13#5	vdd!	2.04418e-18	$X=2.914 $Y=-0.8005
C303	net1#9	vdd!#34	2.2945e-18	$X=2.524 $Y=1.558
C304	net6#7	RST#2	2.07237e-18	$X=0.4325 $Y=-1.006
C305	net1#6	vdd!	5.61848e-18	$X=2.768 $Y=0.9745
C306	net6#9	net3#6	4.06839e-18	$X=2.0055 $Y=0.789
C307	net6#6	gnd!#27	2.39904e-18	$X=1.3565 $Y=-0.43
C308	XI18/net2#4	vdd!	2.67694e-18	$X=3.664 $Y=-0.86
C309	gnd!#23	gnd!#22	2.49378e-18	$X=3.75 $Y=0.464
C310	gnd!#1	net3#8	6.17179e-18	$X=1.7685 $Y=0.524
C311	net13#4	net4#5	7.75442e-19	$X=3.259 $Y=-0.5005
C312	XI13/net2#4	vdd!#19	2.88118e-18	$X=4.298 $Y=0.9085
C313	net3#14	net11#3	9.85997e-19	$X=3.429 $Y=0.517
C314	net13#5	Q#2	3.04028e-18	$X=2.8515 $Y=-0.883
C315	vdd!#44	net6#9	1.13278e-17	$X=2.2145 $Y=1.1505
C316	net2#10	vdd!	2.89703e-18	$X=4.169 $Y=-0.88
C317	XI13/net2#4	vdd!	4.89225e-18	$X=4.364 $Y=0.8795
C318	gnd!#23	net6#4	1.18938e-18	$X=3.04 $Y=0.501
C319	net11#5	gnd!#3	1.24443e-18	$X=4.591 $Y=0.295
C320	net6#9	vdd!#26	1.241e-18	$X=2.1955 $Y=1.475
C321	gnd!#11	XI11/net3	1.04403e-17	$X=2.7505 $Y=0.212
C322	net6#6	gnd!#17	2.32414e-18	$X=0.8945 $Y=-0.0195
C323	gnd!#13	gnd!#1	8.6411e-18	$X=2.1695 $Y=0.0985
C324	CLK#14	XI15/net2#4	2.40583e-17	$X=1.5845 $Y=-0.885
C325	net6#9	net3#7	4.68159e-18	$X=1.842 $Y=0.8835
C326	CLK#20	gnd!#29	2.20691e-18	$X=0.4415 $Y=-0.54
C327	Q#2	net4#4	1.57578e-18	$X=3.0695 $Y=-0.9185
C328	net6#6	XI9/net2#5	1.82144e-18	$X=1.0955 $Y=0.391
C329	net11#5	net3#13	6.02772e-18	$X=4.775 $Y=0.605
C330	net6#2	net1#4	9.23726e-19	$X=3.1755 $Y=0.7095
C331	XI9/net2#3	D#2	9.58556e-18	$X=1.4245 $Y=1.2745
C332	net11#2	net4#25	2.21393e-17	$X=3.7225 $Y=0.8905
C333	net4	XI18/net2#2	1.5103e-18	$X=4.026 $Y=-0.2575
C334	XI15/net2#3	gnd!#1	2.23133e-18	$X=1.679 $Y=-0.501
C335	net4#23	net1#13	4.65267e-17	$X=3.24 $Y=-0.9605
C336	net1#10	net6#4	2.32695e-18	$X=2.918 $Y=0.522
C337	RST#3	gnd!#29	4.82593e-18	$X=0.331 $Y=-0.778
C338	gnd!#8	XI18/net2#2	2.31793e-18	$X=3.776 $Y=-0.1515
C339	Q#6	net13#3	7.73966e-19	$X=2.221 $Y=-1.2385
C340	vdd!#30	vdd!#28	2.38221e-18	$X=0.4355 $Y=1.7065
C341	vdd!#24	vdd!#19	3.63186e-18	$X=2.774 $Y=1.7015
C342	CLK#11	XI15/net2	9.55973e-19	$X=2.167 $Y=-0.7315
C343	net6#6	XI9/net2#2	1.85471e-18	$X=1.388 $Y=0.1715
C344	net2#6	Q#2	2.62691e-18	$X=2.6455 $Y=-0.941
C345	XI13/net2#3	net11#4	9.45855e-18	$X=4.5155 $Y=1.2675
C346	net1#6	net1#8	2.58722e-17	$X=2.8495 $Y=0.867
C347	vdd!#35	vdd!#34	2.12242e-18	$X=2.4765 $Y=1.561
C348	net3#3	net1#7	1.00563e-18	$X=2.694 $Y=0.787
C349	net4#11	XI13/net2	1.53707e-18	$X=4.5325 $Y=0.522
C350	XI15/net2#2	gnd!#1	1.72766e-17	$X=2.0915 $Y=-0.2975
C351	net1#3	net11	1.15157e-17	$X=3.495 $Y=1.122
C352	net3#14	gnd!#23	2.12494e-18	$X=3.2385 $Y=0.474
C353	vdd!#3	vdd!	1.5728e-17	$X=4.3895 $Y=-1.76
C354	RST#2	CLK#13	6.37193e-19	$X=0.981 $Y=-0.91
C355	net6#6	gnd!#28	3.67645e-18	$X=0.9285 $Y=0.333
C356	vdd!#5	vdd!	1.59238e-17	$X=3.374 $Y=-1.6905
C357	vdd!#7	vdd!	6.90641e-18	$X=2.7095 $Y=-1.6865
C358	net11#5	gnd!#5	5.86504e-19	$X=4.3365 $Y=0.462
C359	XI11/net3	net6#4	3.54103e-18	$X=2.8645 $Y=0.5065
C360	vdd!#9	vdd!	1.90418e-17	$X=1.4745 $Y=-1.6905
C361	XI9/net2	CLK#1	9.55973e-19	$X=1.667 $Y=0.76
C362	gnd!#24	Q#1	1.12987e-18	$X=3.0215 $Y=-0.5015
C363	vdd!#12	vdd!	8.05893e-18	$X=0.3095 $Y=-1.6865
C364	net6#9	vdd!#28	9.75892e-19	$X=1.416 $Y=1.3995
C365	net2#9	gnd!#3	2.14051e-18	$X=4.5245 $Y=-0.629
C366	XI18/net2	net2	1.55831e-18	$X=4.307 $Y=-0.5185
C367	net4#17	XI18/net2#4	2.60455e-18	$X=3.3625 $Y=-0.8765
C368	net13#2	CLK#13	1.66351e-18	$X=1.7035 $Y=-0.858
C369	vdd!#20	vdd!	1.9935e-17	$X=4.074 $Y=1.71
C370	net4#25	net1#8	4.03783e-18	$X=3.3955 $Y=0.7775
C371	net4#23	net2#5	8.74223e-19	$X=2.3425 $Y=-0.577
C372	net1#7	net1#8	1.68361e-17	$X=3.006 $Y=0.7445
C373	vdd!#22	vdd!	5.83127e-18	$X=3.409 $Y=1.706
C374	net4#4	net4#3	3.89683e-18	$X=3.4475 $Y=-0.8885
C375	net4#23	net4#17	7.20941e-18	$X=3.263 $Y=-0.879
C376	vdd!#24	vdd!	9.59419e-18	$X=2.784 $Y=1.7
C377	vdd!#25	vdd!	8.43365e-18	$X=2.5545 $Y=1.7735
C378	gnd!#1	XI9/net2#2	1.18867e-17	$X=1.5955 $Y=0.3165
C379	vdd!#25	vdd!#19	5.05308e-18	$X=2.549 $Y=1.7735
C380	gnd!#15	gnd!#1	9.17696e-18	$X=1.4895 $Y=-0.071
C381	vdd!#26	vdd!	1.77703e-17	$X=2.1645 $Y=1.6985
C382	net1#3	vdd!#32	9.70427e-18	$X=3.42 $Y=1.161
C383	net2#13	net1#13	9.69221e-18	$X=3.1085 $Y=-1.2
C384	net6#6	net4#15	5.85036e-18	$X=0.5285 $Y=0.408
C385	vdd!#28	vdd!	2.40106e-17	$X=0.9745 $Y=1.71
C386	net1#13	net2#10	2.69749e-17	$X=4.094 $Y=-0.906
C387	XI11/net3#2	net6#4	4.72083e-19	$X=2.7665 $Y=0.5065
C388	gnd!#23	net11#3	1.45316e-17	$X=3.5205 $Y=0.5
C389	net6	net1#3	9.6664e-19	$X=3.0885 $Y=1.1775
C390	vdd!#30	vdd!	8.43685e-18	$X=0.3095 $Y=1.706
C391	net3#2	net6#3	2.01368e-18	$X=2.579 $Y=0.8125
C392	net4#23	vdd!#9	1.87444e-18	$X=1.8155 $Y=-1.4695
C393	net1#4	net4#11	2.17017e-18	$X=3.862 $Y=0.5375
C394	net13#4	Q#1	2.67442e-18	$X=2.8515 $Y=-0.525
C395	net3#14	net1#10	1.50252e-18	$X=2.893 $Y=0.533
C396	gnd!#8	net1#3	1.11054e-18	$X=3.423 $Y=0.7285
C397	vdd!#34	vdd!#24	1.0176e-17	$X=2.6175 $Y=1.6405
C398	CLK#20	RST#3	2.28391e-18	$X=0.431 $Y=-0.996
C399	gnd!#28	XI9/net2#5	1.47957e-17	$X=1.077 $Y=0.489
C400	net3#7	net1#9	3.75453e-18	$X=1.928 $Y=0.991
C401	net6#6	gnd!#20	4.53433e-18	$X=0.368 $Y=-0.065
C402	net2#11	vdd!#13	5.73323e-18	$X=4.329 $Y=-1.2765
C403	net2#15	Q#6	9.96722e-18	$X=3.552 $Y=-1.319
C404	net4#25	vdd!#20	3.92437e-18	$X=3.9665 $Y=1.5405
C405	net13#3	net2#6	1.17963e-17	$X=2.1675 $Y=-1.088
C406	CLK#5	net4#14	2.31794e-17	$X=0.4365 $Y=1.033
C407	net4#25	net6#9	4.73683e-18	$X=3.0275 $Y=0.9435
C408	net4#5	XI18/net2	1.53707e-18	$X=3.8325 $Y=-0.503
C409	XI15/net2#4	net13#3	1.70652e-18	$X=1.9465 $Y=-1.0745
C410	net11	net1#2	1.3508e-18	$X=3.5325 $Y=1.026
C411	gnd!#25	Q#1	3.70225e-18	$X=2.776 $Y=-0.5085
C412	CLK#20	RST#2	2.63137e-18	$X=0.473 $Y=-0.9385
C413	net4#23	net13#6	1.24405e-17	$X=2.7525 $Y=-0.7535
C414	vdd!#26	vdd!#19	5.98594e-18	$X=2.1695 $Y=1.701
C415	gnd!#1	XI9/net2#5	6.18685e-18	$X=1.1815 $Y=0.52
C416	XI15/net2#4	net13#2	2.84925e-17	$X=1.9505 $Y=-0.817
C417	vdd!#1	net1#13	4.00097e-18	$X=3.5825 $Y=-1.103
C418	net11#5	net4#6	2.62316e-18	$X=4.7105 $Y=1.1985
C419	net3#14	net11#2	1.19007e-18	$X=3.2945 $Y=0.6865
C420	gnd!#11	gnd!#8	2.24124e-18	$X=2.9665 $Y=-0.0145
C421	CLK#17	net4#15	3.65727e-18	$X=0.438 $Y=0.6505
C422	vdd!#26	net3	2.2972e-18	$X=2.237 $Y=1.397
C423	vdd!#14	net4#4	4.14846e-18	$X=3.4015 $Y=-1.0285
C424	net2#10	Q#9	1.20415e-18	$X=4.467 $Y=-0.721
C425	net11#2	vdd!#19	1.36999e-18	$X=3.68 $Y=0.8355
C426	Q#7	net2#9	2.47027e-18	$X=4.5675 $Y=-1.0215
C427	net11#5	net3#12	3.92324e-17	$X=4.8135 $Y=0.9005
C428	net6#4	net1#4	1.91713e-18	$X=3.146 $Y=0.532
C429	Q#7	net2#4	1.72999e-18	$X=4.742 $Y=-1.3295
C430	gnd!#17	gnd!#1	5.38987e-18	$X=0.9885 $Y=0.0905
C431	net3#14	XI11/net3	3.63144e-18	$X=2.6995 $Y=0.484
C432	vdd!#36	XI9/net2#3	2.37627e-17	$X=1.075 $Y=1.3455
C433	net6#6	gnd!#30	2.62102e-18	$X=0.36 $Y=0.346
C434	vdd!#9	CLK#20	7.40604e-18	$X=1.3505 $Y=-1.469
C435	net11	XI13/net2#4	1.33628e-18	$X=4.0115 $Y=1.069
C436	net2#5	Q#1	1.83736e-18	$X=2.627 $Y=-0.5345
C437	XI11/net3	net3#4	5.0576e-19	$X=2.3895 $Y=0.5095
C438	net6#5	gnd!#27	1.05492e-18	$X=0.956 $Y=-0.473
C439	net4#15	XI9/net2#5	1.73445e-18	$X=0.867 $Y=0.542
C440	RST#2	vdd!	8.2385e-18	$X=0.412 $Y=-0.9355
C441	vdd!#26	vdd!#34	5.29196e-18	$X=2.474 $Y=1.6345
C442	CLK#2	vdd!	2.66011e-17	$X=1.077 $Y=1.5475
C443	net6#9	net1#6	3.78829e-17	$X=2.678 $Y=0.938
C444	CLK#4	vdd!	7.87544e-18	$X=0.412 $Y=0.956
C445	net4#4	gnd!#8	1.39572e-18	$X=3.413 $Y=-0.688
C446	net3#6	vdd!#26	1.12301e-18	$X=2.0315 $Y=1.1505
C447	vdd!#42	CLK#20	8.76207e-18	$X=0.944 $Y=-0.991
C448	CLK#13	vdd!	3.21319e-18	$X=1.577 $Y=-0.883
C449	RST#3	net6#6	1.14417e-17	$X=0.3725 $Y=-0.9365
C450	net3#2	vdd!	3.86504e-18	$X=2.267 $Y=0.845
C451	net6#9	vdd!#36	8.72613e-19	$X=1.299 $Y=1.2325
C452	CLK#17	net6#5	1.66259e-18	$X=0.454 $Y=-0.271
C453	Q#2	vdd!	4.34121e-18	$X=2.8115 $Y=-0.9355
C454	net4#23	Q#6	7.89615e-18	$X=2.8415 $Y=-1.1135
C455	Q#1	net4#5	2.29299e-18	$X=3.1615 $Y=-0.518
C456	net6#2	vdd!	4.51827e-18	$X=2.8865 $Y=0.8385
C457	net13#5	net4#3	1.83163e-18	$X=3.2515 $Y=-0.85
C458	net1#2	vdd!	6.89769e-18	$X=3.5115 $Y=0.956
C459	net11#2	XI13/net2#4	4.77428e-18	$X=4.1135 $Y=0.8425
C460	CLK#17	gnd!#20	6.88256e-18	$X=0.274 $Y=0.232
C461	net6#9	vdd!#40	1.6899e-18	$X=2.5265 $Y=1.5625
C462	net4#3	vdd!	3.99977e-18	$X=3.4765 $Y=-0.883
C463	vdd!#1	net13#3	5.06331e-18	$X=2.076 $Y=-1.2275
C464	gnd!#1	CLK#5	1.6022e-18	$X=0.349 $Y=1.0155
C465	net2#2	vdd!	8.70076e-18	$X=4.7115 $Y=-0.9355
C466	vdd!#31	XI13/net2#3	2.1577e-17	$X=4.175 $Y=1.3455
C467	net1#10	net11#3	8.13518e-19	$X=3.302 $Y=0.5325
C468	net3#10	vdd!#19	4.25823e-18	$X=1.775 $Y=1.267
C469	net4#8	vdd!	6.73967e-18	$X=4.177 $Y=1.091
C470	net6#6	gnd!#29	2.98668e-18	$X=0.36 $Y=-0.445
C471	net2#13	net13#6	2.74741e-18	$X=2.7175 $Y=-0.861
C472	gnd!#24	XI18/net2#3	1.47957e-17	$X=3.477 $Y=-0.47
C473	net1#6	vdd!#33	7.19336e-18	$X=2.777 $Y=1.127
C474	net3#14	net1#8	6.15718e-18	$X=2.7825 $Y=0.486
C475	XI11/net3#2	net3#4	2.72512e-18	$X=2.2895 $Y=0.5095
C476	net2#13	vdd!#7	1.05593e-18	$X=2.695 $Y=-1.642
C477	net6#7	vdd!#16	2.47939e-18	$X=1.0235 $Y=-1.3145
C478	net4#13	XI9/net2#3	7.44211e-19	$X=0.82 $Y=1.3205
C479	CLK#11	XI15/net2#2	9.91798e-19	$X=2.137 $Y=-0.949
C480	gnd!#1	net4#15	5.87802e-18	$X=0.5215 $Y=0.5615
C481	net13#4	XI15/net2	3.19898e-19	$X=2.383 $Y=-0.505
C482	net6#9	net1#7	1.70736e-17	$X=2.9225 $Y=0.778
C483	Q#7	net1#13	3.78374e-18	$X=4.362 $Y=-1.1985
C484	XI13/net2#2	XI13/net2	7.02514e-19	$X=4.7525 $Y=0.487
C485	Q#7	net4	1.25168e-18	$X=4.2965 $Y=-0.4865
C486	net3#14	XI11/net3#2	4.74867e-18	$X=2.3675 $Y=0.484
C487	net4#21	CLK#4	9.83656e-19	$X=0.467 $Y=0.9935
C488	net3#4	net6#4	2.1615e-18	$X=2.5805 $Y=0.5145
C489	Q#3	Q#2	1.63782e-18	$X=2.782 $Y=-0.9625
C490	CLK#17	gnd!#30	5.06493e-18	$X=0.2855 $Y=0.5665
C491	vdd!#28	vdd!#19	1.23135e-17	$X=1.043 $Y=1.7135
C492	RST#3	gnd!#1	1.53259e-18	$X=0.351 $Y=-0.9965
C493	net4#15	gnd!#28	4.018e-18	$X=0.762 $Y=0.506
C494	gnd!#26	net3#4	2.44494e-18	$X=2.238 $Y=0.5075
C495	net4#25	net6	7.9943e-19	$X=2.9925 $Y=1.247
C496	net4#23	net2#6	2.68594e-18	$X=2.348 $Y=-0.937
C497	XI9/net2#2	CLK#1	8.37428e-19	$X=1.638 $Y=0.982
C498	gnd!#25	XI15/net2	7.13961e-19	$X=2.3065 $Y=-0.4925
C499	vdd!#17	vdd!#9	2.08931e-18	$X=0.8865 $Y=-1.614
C500	vdd!#44	CLK#17	1.63521e-18	$X=0.913 $Y=1.249
C501	net6#5	gnd!#1	5.5208e-18	$X=0.5185 $Y=-0.502
C502	vdd!#3	net2#10	1.03965e-18	$X=4.2425 $Y=-1.173
C503	vdd!#40	vdd!#34	5.27609e-18	$X=2.5545 $Y=1.633
C504	XI13/net2#4	XI13/net2	7.84257e-19	$X=4.6975 $Y=0.586
C505	net4#11	XI13/net2#2	2.8005e-18	$X=4.306 $Y=0.4675
C506	net1#8	vdd!#19	2.8279e-18	$X=3.0695 $Y=0.595
C507	net11	net4#8	1.29866e-18	$X=4.1105 $Y=1.1135
C508	net2#13	Q#6	5.42478e-17	$X=2.7515 $Y=-1.3315
C509	net3#7	net3#6	1.42105e-17	$X=1.8445 $Y=0.852
C510	net4#13	vdd!#36	7.29584e-18	$X=0.7335 $Y=1.3505
C511	vdd!#42	net6#6	1.12468e-17	$X=0.692 $Y=-0.684
C512	CLK#20	net13#3	6.28841e-19	$X=1.886 $Y=-1.1725
C513	vdd!#33	net6#3	1.39662e-18	$X=2.7995 $Y=0.8835
C514	net1#13	net4	2.28997e-18	$X=3.9745 $Y=-0.407
C515	net3#14	net6#9	2.59491e-17	$X=2.3365 $Y=0.627
C516	net2#13	vdd!#9	2.15856e-18	$X=1.8195 $Y=-1.5815
C517	CLK#17	gnd!#29	5.67817e-18	$X=0.2855 $Y=-0.1925
C518	CLK#20	XI15/net2#4	4.91955e-18	$X=1.5905 $Y=-0.8865
C519	net1#6	net6#2	3.78536e-18	$X=2.8525 $Y=0.8775
C520	gnd!#13	XI11/net3#2	9.19062e-19	$X=2.297 $Y=0.356
C521	net4#23	net13#2	1.54304e-17	$X=2.319 $Y=-0.788
C522	gnd!#20	gnd!#1	2.00045e-18	$X=0.325 $Y=0.0095
C523	net3#14	gnd!#26	5.19195e-18	$X=2.205 $Y=0.4845
C524	XI13/net2#4	net11#6	6.69968e-18	$X=4.565 $Y=0.6335
C525	CLK#20	CLK#13	1.58474e-18	$X=1.5275 $Y=-0.891
C526	net11	XI13/net2#3	1.98443e-18	$X=3.9555 $Y=1.3
C527	net1#14	net2#11	1.27033e-17	$X=4.059 $Y=-1.2485
C528	Q#3	net13#7	1.20537e-17	$X=2.7865 $Y=-1.074
C529	gnd!#13	net3#6	8.74181e-19	$X=2.008 $Y=0.5905
C530	vdd!#42	CLK#17	9.00665e-18	$X=0.3985 $Y=0.1895
C531	XI9/net2	net3#4	1.75128e-18	$X=1.9365 $Y=0.521
C532	XI18/net2#2	net2	1.34498e-18	$X=4.514 $Y=-0.4745
C533	net3#11	net4#6	3.71842e-18	$X=4.8155 $Y=1.311
C534	net4#28	net3#6	1.62513e-18	$X=1.839 $Y=0.7205
C535	vdd!#9	CLK#12	4.87651e-18	$X=1.5415 $Y=-1.4495
C536	vdd!#1	XI15/net2#5	4.90682e-18	$X=1.694 $Y=-1.305
C537	vdd!#44	CLK#1	2.28107e-18	$X=1.715 $Y=1.3915
C538	net3#3	net3#2	3.3381e-18	$X=2.2345 $Y=0.831
C539	net11#4	net4#6	4.65161e-18	$X=4.7225 $Y=1.3045
C540	net1#10	gnd!#23	4.70117e-18	$X=3.184 $Y=0.51
C541	net2#10	net2	8.88173e-19	$X=4.5065 $Y=-0.6685
C542	net13	XI15/net2	2.12138e-18	$X=2.139 $Y=-0.5
C543	net2#13	net2#6	6.51124e-18	$X=2.3315 $Y=-1.025
C544	net2#6	net13#5	3.03361e-18	$X=2.65 $Y=-0.863
C545	net1#6	vdd!#34	1.25463e-18	$X=2.6105 $Y=1.448
C546	XI18/net2#4	net1#12	1.67633e-17	$X=3.845 $Y=-0.6615
C547	CLK#15	XI15/net2	1.53707e-18	$X=1.9325 $Y=-0.503
C548	net4#14	XI9/net2#4	3.64395e-18	$X=0.8515 $Y=0.985
C549	XI13/net2#3	net4#6	2.61875e-18	$X=4.5955 $Y=1.343
C550	net1#13	net4#2	2.56419e-18	$X=3.51 $Y=-1.2765
C551	vdd!#26	CLK#1	1.86397e-18	$X=1.837 $Y=1.475
C552	net4#23	CLK#20	1.01594e-17	$X=1.8315 $Y=-0.917
C553	vdd!#15	Q#3	7.057e-18	$X=2.7315 $Y=-1.104
C554	vdd!#1	net2#3	1.2171e-18	$X=4.6175 $Y=-1.008
C555	vdd!#19	CLK#2	1.60448e-18	$X=1.1055 $Y=1.5525
C556	XI18/net2#2	XI18/net2	7.61199e-19	$X=4.0525 $Y=-0.468
C557	net3#14	net3#8	1.31653e-18	$X=1.8695 $Y=0.5185
C558	vdd!#42	XI15/net2#4	2.12247e-18	$X=1.572 $Y=-0.8925
C559	XI13/net2#2	net11#6	2.16769e-17	$X=4.676 $Y=0.439
C560	net1#9	net1#6	1.4192e-18	$X=2.6285 $Y=1.067
C561	vdd!#1	net13#6	9.37197e-19	$X=2.7455 $Y=-0.75
C562	Q#8	net2#4	4.02754e-18	$X=4.738 $Y=-1.3225
C563	net2#13	net13#2	1.34268e-17	$X=2.2955 $Y=-0.929
C564	XI15/net2#3	XI15/net2	3.48131e-19	$X=2.039 $Y=-0.505
C565	net2#5	gnd!#13	4.8643e-18	$X=2.235 $Y=-0.3405
C566	net11#2	XI13/net2#5	1.06919e-18	$X=4.1215 $Y=0.5995
C567	net3#16	gnd!#1	8.54778e-18	$X=4.5 $Y=0.691
C568	vdd!#37	vdd!#36	1.98738e-18	$X=0.648 $Y=1.37
C569	net11#2	gnd!#5	1.34543e-18	$X=3.9015 $Y=0.4585
C570	vdd!#13	net2#4	5.67486e-18	$X=4.687 $Y=-1.3325
C571	net6#9	vdd!#19	2.78644e-18	$X=2.2955 $Y=0.8795
C572	vdd!#12	vdd!#17	4.00181e-18	$X=0.5785 $Y=-1.635
C573	CLK#8	XI9/net2	1.53707e-18	$X=1.4325 $Y=0.522
C574	gnd!#30	gnd!#28	1.91812e-18	$X=0.65 $Y=0.464
C575	net11	vdd!#31	6.10444e-18	$X=3.858 $Y=1.334
C576	net2#11	net2#4	1.18397e-18	$X=4.51 $Y=-1.295
C577	net1#7	net6#2	2.62664e-18	$X=2.9355 $Y=0.8095
C578	net4#5	XI18/net2#2	2.92317e-18	$X=3.606 $Y=-0.4485
C579	XI13/net2#5	XI13/net2#2	1.31391e-17	$X=4.4355 $Y=0.4435
C580	Q#6	net4#2	1.62544e-18	$X=3.373 $Y=-1.325
C581	XI18/net2#4	XI18/net2	6.89481e-19	$X=3.9975 $Y=-0.567
C582	net11#4	net4#7	5.08719e-19	$X=4.413 $Y=1.3155
C583	net6#6	XI9/net2#4	9.37451e-19	$X=1.124 $Y=0.5995
C584	net2#15	gnd!#1	2.39559e-18	$X=4.133 $Y=-1.2765
C585	net3#8	XI9/net2	2.46176e-18	$X=1.6915 $Y=0.5255
C586	net3#14	D#1	1.43931e-18	$X=1.71 $Y=0.521
C587	XI13/net2#4	net4#11	5.65836e-19	$X=4.2215 $Y=0.6045
C588	XI18/net2#5	net2#4	3.72512e-19	$X=4.431 $Y=-1.32
C589	XI13/net2#3	net4#7	5.529e-18	$X=4.213 $Y=1.359
C590	vdd!#37	net4#13	2.1577e-17	$X=0.4165 $Y=1.344
C591	net3#14	net3#9	3.66151e-18	$X=1.9835 $Y=0.525
C592	net2#3	gnd!#21	4.6886e-18	$X=4.629 $Y=-0.771
C593	vdd!#22	vdd!#20	2.55356e-18	$X=3.5855 $Y=1.707
C594	net4#28	CLK#20	1.32405e-17	$X=1.023 $Y=-0.592
C595	RST#1	CLK#15	7.01223e-19	$X=1.0245 $Y=-0.518
C596	CLK#9	CLK#8	2.06635e-18	$X=0.762 $Y=0.5375
C597	net4#14	CLK#4	5.21571e-18	$X=0.4665 $Y=0.9875
C598	net11#2	gnd!#22	2.45849e-18	$X=3.983 $Y=0.5515
C599	gnd!#22	XI13/net2#2	5.55862e-18	$X=4.317 $Y=0.402
C600	Q#7	vdd!#3	1.54231e-17	$X=4.5605 $Y=-1.643
C601	vdd!#42	RST#4	4.07445e-19	$X=0.439 $Y=-1.306
C602	gnd!#30	net4#15	1.47957e-17	$X=0.4055 $Y=0.5155
C603	vdd!#31	net4#7	5.02224e-18	$X=4.14 $Y=1.3825
C604	XI11/net3	gnd!#23	2.82597e-18	$X=3.1505 $Y=0.478
C605	net13#4	gnd!#24	4.02161e-18	$X=3.125 $Y=-0.473
C606	XI13/net2#5	XI13/net2#4	1.55704e-17	$X=4.308 $Y=0.656
C607	D#1	XI9/net2	2.45718e-18	$X=1.6425 $Y=0.526
C608	net6	net1#2	8.56623e-19	$X=3.25 $Y=1.0885
C609	net3#16	net11#4	7.30795e-19	$X=4.648 $Y=1.1435
C610	vdd!#40	vdd!#25	7.07613e-18	$X=2.5545 $Y=1.6945
C611	vdd!#13	net4	2.25456e-18	$X=4.3345 $Y=-0.7665
C612	net11	net4#7	9.12955e-19	$X=3.9775 $Y=1.3505
C613	net1#13	net4#17	2.596e-18	$X=3.3185 $Y=-0.8915
C614	net3#3	vdd!#35	5.55788e-18	$X=2.17 $Y=0.998
C615	net6#6	RST#2	5.09697e-18	$X=0.429 $Y=-0.892
C616	Q#6	vdd!#1	1.2149e-17	$X=2.882 $Y=-1.357
C617	net2#15	Q#8	1.52102e-18	$X=4.658 $Y=-1.307
C618	net4#9	vdd!#20	4.29333e-18	$X=4.057 $Y=1.357
C619	vdd!#32	vdd!#31	2.21845e-18	$X=3.748 $Y=1.37
C620	XI18/net2#5	net1#14	6.60975e-18	$X=3.842 $Y=-1.2695
C621	net13#5	net4#5	6.53718e-19	$X=3.2555 $Y=-0.6175
C622	RST#1	CLK#9	3.30207e-19	$X=0.412 $Y=0.009
C623	net3#14	XI9/net2#5	1.00229e-18	$X=1.3755 $Y=0.5155
C624	Q#6	Q#4	7.01513e-19	$X=2.822 $Y=-1.3285
C625	net2#11	net4	2.86084e-18	$X=4.1275 $Y=-0.852
C626	XI15/net2#4	net13	6.46475e-18	$X=1.9655 $Y=-0.6135
C627	net1#13	XI18/net2#3	8.33834e-19	$X=3.5885 $Y=-0.5885
C628	XI18/net2#3	XI18/net2#4	1.55917e-17	$X=3.608 $Y=-0.6365
C629	net4#28	gnd!#15	3.21872e-18	$X=1.355 $Y=-0.029
C630	net3#16	XI13/net2	5.07013e-19	$X=4.753 $Y=0.5365
C631	vdd!#40	vdd!#26	2.3444e-18	$X=2.45 $Y=1.666
C632	net4#23	gnd!#1	6.05374e-18	$X=2.7525 $Y=-0.831
C633	XI15/net2#3	CLK#15	3.88465e-18	$X=1.6105 $Y=-0.5005
C634	net1#14	net4	3.82327e-18	$X=4.0025 $Y=-0.904
C635	gnd!#5	net4#11	2.88998e-18	$X=4.16 $Y=0.4485
C636	vdd!#38	CLK#20	3.24446e-18	$X=0.8025 $Y=-1.5615
C637	net3#14	gnd!#28	9.78544e-19	$X=1.2135 $Y=0.4595
C638	net4#28	net3#7	2.03178e-18	$X=1.7015 $Y=0.8365
C639	net3#16	XI13/net2#3	5.18045e-19	$X=4.3455 $Y=1.1585
C640	net4#28	net3#14	2.10233e-17	$X=1.8875 $Y=0.3585
C641	XI18/net2#5	net4	1.95541e-18	$X=3.8295 $Y=-0.7335
C642	XI9/net2#4	CLK#2	1.55015e-18	$X=1.1545 $Y=1.271
C643	net2#15	vdd!#13	2.14927e-18	$X=4.502 $Y=-1.3355
C644	RST#2	CLK#14	4.49025e-19	$X=0.884 $Y=-0.9185
C645	vdd!#38	vdd!#17	6.30992e-18	$X=0.7695 $Y=-1.614
C646	vdd!#31	net1	2.19586e-18	$X=3.6555 $Y=1.3555
C647	net13#6	net1#13	1.9319e-17	$X=2.936 $Y=-0.795
C648	gnd!#27	CLK#15	4.10265e-18	$X=1.543 $Y=-0.477
C649	net4#13	vdd!#19	6.12831e-18	$X=0.564 $Y=1.3405
C650	net1#8	net11#2	1.6806e-17	$X=3.525 $Y=0.6815
C651	vdd!#18	net6#7	2.1577e-17	$X=0.4065 $Y=-1.3075
C652	net1#8	gnd!#5	9.16397e-19	$X=3.7105 $Y=0.2465
C653	net4#21	CLK#3	9.24305e-19	$X=0.497 $Y=1.237
C654	net4#25	net11#4	1.5503e-18	$X=4.4765 $Y=1.2085
C655	net3#16	net4#11	1.46755e-18	$X=4.212 $Y=0.5355
C656	net1#3	vdd!#19	5.12699e-18	$X=3.398 $Y=1.037
C657	D#2	net3#7	1.24811e-18	$X=1.6785 $Y=1.0595
C658	gnd!#1	XI9/net2#4	6.10811e-19	$X=1.2755 $Y=0.8715
C659	vdd!#38	vdd!#12	2.50739e-18	$X=0.5395 $Y=-1.661
C660	vdd!#19	net4#6	4.95823e-18	$X=4.7215 $Y=1.367
C661	net1#13	gnd!#24	1.52496e-18	$X=3.424 $Y=-0.5315
C662	net11	net1	4.0772e-18	$X=3.5345 $Y=1.334
C663	net1#8	gnd!#22	1.01607e-18	$X=3.902 $Y=0.462
C664	gnd!#13	net3#3	1.81343e-18	$X=2.1685 $Y=0.6175
C665	vdd!#38	RST#4	3.0553e-19	$X=0.584 $Y=-1.4765
C666	XI18/net2#4	net4#5	8.33231e-19	$X=3.5215 $Y=-0.5855
C667	vdd!#32	net11	2.1577e-17	$X=3.5065 $Y=1.3265
C668	XI9/net2#4	D#1	1.28354e-17	$X=1.452 $Y=0.6645
C669	gnd!#25	gnd!#24	1.8626e-18	$X=3.05 $Y=-0.445
C670	XI11/net3	net1#10	1.2384e-17	$X=2.9085 $Y=0.52
C671	net4#14	XI9/net2#3	1.85096e-18	$X=0.809 $Y=1.1535
C672	vdd!#32	net1	5.05078e-18	$X=3.487 $Y=1.352
C673	gnd!#29	net6#5	1.47957e-17	$X=0.4205 $Y=-0.481
C674	net2#15	net2#11	2.85394e-18	$X=4.166 $Y=-1.25
C675	CLK#20	net6#7	4.79203e-18	$X=0.6635 $Y=-1.183
C676	net4#28	XI15/net2#3	1.1084e-18	$X=1.605 $Y=-0.445
C677	XI15/net2#2	gnd!#11	2.65838e-18	$X=2.407 $Y=-0.1855
C678	XI9/net2#2	net3#4	9.80527e-19	$X=2.1205 $Y=0.4745
C679	net13#2	CLK#11	4.82656e-19	$X=2.169 $Y=-1.157
C680	net1#5	net1	1.31539e-18	$X=3.374 $Y=1.333
C681	XI9/net2#4	CLK#4	3.87332e-19	$X=0.613 $Y=0.9375
C682	XI15/net2#2	XI15/net2	7.61199e-19	$X=2.1525 $Y=-0.468
C683	net4#25	XI13/net2#3	9.68889e-19	$X=4.11 $Y=1.2505
C684	Q#6	net1#13	3.32025e-17	$X=3.278 $Y=-1.194
C685	XI18/net2#2	gnd!#21	4.24078e-18	$X=4.367 $Y=-0.393
C686	net1#6	vdd!#24	1.79125e-18	$X=2.7765 $Y=1.348
C687	net4#21	net4#14	6.73985e-18	$X=0.5895 $Y=1.0685
C688	XI18/net2#5	net4#2	7.34355e-18	$X=3.5155 $Y=-1.312
C689	net13#7	Q#2	9.4005e-19	$X=2.8325 $Y=-1.0055
C690	net4#28	XI9/net2#3	1.32546e-18	$X=1.137 $Y=1.1295
C691	vdd!#33	net1	9.31973e-19	$X=3.3315 $Y=1.3465
C692	vdd!#1	net2#4	1.70977e-18	$X=4.6935 $Y=-1.3325
C693	net3#14	gnd!#1	1.11137e-17	$X=2.3825 $Y=0.4675
C694	XI9/net2#5	CLK#8	3.73616e-18	$X=1.1105 $Y=0.5195
C695	net1#13	net13#4	6.86078e-19	$X=3.0115 $Y=-0.5775
C696	net13#5	Q#1	1.25351e-18	$X=2.8545 $Y=-0.649
C697	XI15/net2#3	XI15/net2#4	1.5899e-17	$X=1.708 $Y=-0.6365
C698	net1#8	net11#3	1.29363e-18	$X=3.531 $Y=0.518
C699	net1#12	net2#10	5.37232e-18	$X=4.0785 $Y=-0.7185
C700	net6#6	CLK#13	1.72896e-18	$X=1.4975 $Y=-0.842
C701	vdd!#14	net4#2	4.73326e-18	$X=3.4375 $Y=-1.338
C702	XI15/net2#4	gnd!#1	1.01129e-18	$X=1.771 $Y=-0.8525
C703	net13#2	vdd!#1	1.09663e-18	$X=2.183 $Y=-0.7925
C704	CLK#14	CLK#13	2.0227e-18	$X=1.5475 $Y=-0.8885
C705	net4#21	net6#6	2.91394e-18	$X=0.603 $Y=0.8295
C706	net4#23	XI15/net2#4	6.3492e-18	$X=1.978 $Y=-0.8595
C707	gnd!#28	CLK#8	3.77133e-18	$X=1.043 $Y=0.496
C708	XI15/net2#2	gnd!#13	2.06759e-17	$X=2.1155 $Y=-0.156
C709	XI9/net2#2	XI9/net2	6.73486e-19	$X=1.6525 $Y=0.487
C710	XI15/net2#4	XI15/net2	6.84776e-19	$X=2.0975 $Y=-0.567
C711	vdd!#1	net6#7	7.4131e-18	$X=0.562 $Y=-1.2795
C712	net2#15	net1#14	1.69806e-18	$X=3.999 $Y=-1.2655
C713	net1#8	gnd!#8	6.35445e-18	$X=3.3135 $Y=0.245
C714	net11#5	XI13/net2	2.42971e-18	$X=4.7415 $Y=0.558
C715	CLK#15	XI15/net2#2	3.23371e-18	$X=1.706 $Y=-0.4485
C716	XI18/net2#2	net2#12	2.10562e-18	$X=4.094 $Y=-0.4255
C717	net13#7	net4#2	1.59532e-18	$X=3.264 $Y=-1.3025
C718	net1#5	net11	1.97701e-18	$X=3.272 $Y=1.2885
C719	vdd!#14	XI18/net2#5	2.37627e-17	$X=3.475 $Y=-1.3265
C720	net4#25	vdd!#31	1.75412e-18	$X=3.9715 $Y=1.2985
C721	net4#15	CLK#8	1.76262e-18	$X=0.8995 $Y=0.5325
C722	CLK#17	CLK#4	9.40363e-19	$X=0.3855 $Y=0.9595
C723	vdd!#19	net4#7	4.12631e-18	$X=4.139 $Y=1.394
C724	net1#8	XI18/net2#3	9.12449e-19	$X=3.492 $Y=-0.317
C725	CLK#20	vdd!#18	2.14119e-18	$X=0.506 $Y=-1.248
C726	XI9/net2#2	CLK#15	8.33493e-19	$X=1.5795 $Y=-0.2915
C727	vdd!#32	net6	1.73752e-18	$X=3.043 $Y=1.299
C728	CLK#17	net4#21	7.00491e-18	$X=0.5045 $Y=1.0645
C729	net4#21	net4#15	1.75184e-18	$X=0.5525 $Y=0.8165
C730	net1#13	net2#6	8.45721e-19	$X=2.517 $Y=-0.97
C731	XI9/net2#4	XI9/net2	6.03208e-19	$X=1.5975 $Y=0.586
C732	Q#6	net4#17	6.47804e-19	$X=3.268 $Y=-0.911
C733	net1#9	vdd!#25	4.33406e-18	$X=2.489 $Y=1.5915
C734	net6#9	net1#8	4.76174e-18	$X=2.755 $Y=0.624
C735	net1#6	vdd!#25	9.12754e-19	$X=2.6605 $Y=1.3765
C736	XI11/net3	net1#6	2.09217e-19	$X=2.778 $Y=0.7445
C737	vdd!#30	CLK#3	1.41517e-18	$X=0.3475 $Y=1.5785
C738	XI9/net2#5	CLK#9	4.65971e-19	$X=0.6945 $Y=0.5455
C739	net1#5	net6	3.55704e-18	$X=2.9165 $Y=1.278
C740	gnd!#15	XI15/net2#2	2.35913e-18	$X=1.865 $Y=-0.2175
C741	CLK#8	XI9/net2#2	2.80326e-18	$X=1.206 $Y=0.4675
C742	gnd!#25	net13#4	1.47957e-17	$X=2.8205 $Y=-0.481
C743	vdd!#9	XI15/net2#5	2.13228e-18	$X=1.5855 $Y=-1.4695
C744	XI18/net2#2	net1#12	2.37242e-17	$X=3.977 $Y=-0.429
C745	net3#14	net1#4	6.94648e-19	$X=3.392 $Y=0.551
C746	net1#8	gnd!#23	4.0477e-18	$X=3.361 $Y=0.4765
C747	net4#28	vdd!	5.45726e-18	$X=0.9345 $Y=0.1245
C748	net4#21	gnd!#1	4.63064e-18	$X=0.611 $Y=1.0775
C749	net2#15	XI18/net2#5	2.67293e-18	$X=3.731 $Y=-1.298
C750	XI9/net2#5	XI9/net2#4	1.53545e-17	$X=1.208 $Y=0.656
C751	gnd!#28	CLK#9	1.47183e-18	$X=0.622 $Y=0.5205
C752	vdd!#3	net2#9	3.81085e-18	$X=4.444 $Y=-1.243
C753	net13#2	net1#13	1.32411e-18	$X=2.577 $Y=-0.8425
C754	vdd!#33	net6	4.52354e-18	$X=2.858 $Y=1.2925
C755	gnd!#8	net1#4	2.11437e-18	$X=3.495 $Y=0.474
C756	net4#25	net11	3.98392e-18	$X=3.6285 $Y=1.227
C757	vdd!#18	vdd!#17	2.06067e-18	$X=0.676 $Y=-1.5465
C758	vdd!#14	Q#4	2.14913e-18	$X=2.9555 $Y=-1.336
C759	XI9/net2#2	gnd!#13	3.23389e-18	$X=1.7955 $Y=0.24
C760	vdd!#1	net4	3.88406e-18	$X=4.0305 $Y=-0.248
C761	net4#15	CLK#9	5.68754e-18	$X=0.4445 $Y=0.561
C762	net1#9	vdd!#26	2.10926e-18	$X=2.2485 $Y=1.506
C763	net1#9	net6	2.0138e-18	$X=2.7635 $Y=1.2655
C764	gnd!#27	RST#1	8.63386e-19	$X=0.807 $Y=-0.5015
C765	net1#8	gnd!#24	3.87639e-18	$X=3.3335 $Y=-0.262
C766	vdd!#1	Q#3	1.2171e-18	$X=2.7365 $Y=-1.008
C767	XI18/net2#3	XI18/net2#2	1.31675e-17	$X=3.7355 $Y=-0.4245
C768	Q#7	gnd!#1	3.65062e-18	$X=4.9455 $Y=-1.3005
C769	CLK#20	vdd!#1	1.35774e-17	$X=1.164 $Y=-1.0185
C770	net3#8	net3#6	5.59632e-18	$X=1.85 $Y=0.6525
C771	net13#7	Q#4	4.18415e-18	$X=2.834 $Y=-1.314
C772	vdd!#16	CLK#14	5.33737e-18	$X=1.5015 $Y=-1.0285
C773	net1#5	vdd!#32	8.10129e-18	$X=3.194 $Y=1.326
C774	vdd!#35	net6	7.53665e-19	$X=2.677 $Y=1.2915
C775	net1#8	gnd!#11	2.39875e-18	$X=2.8175 $Y=0.067
C776	net13#7	net4#3	1.10991e-18	$X=3.352 $Y=-0.9675
C777	Q#6	net13#6	1.23114e-17	$X=2.7845 $Y=-0.8565
C778	net4#14	CLK#6	1.22006e-18	$X=0.9075 $Y=1.2165
C779	net3#14	net6#4	8.49879e-19	$X=2.8475 $Y=0.51
C780	gnd!#30	CLK#9	4.40696e-18	$X=0.376 $Y=0.5275
C781	vdd!#15	Q#4	5.51874e-18	$X=2.787 $Y=-1.3325
C782	net1#8	net1#10	3.20515e-18	$X=3.0095 $Y=0.534
C783	vdd!#19	net1	3.16192e-18	$X=3.498 $Y=1.353
C784	net11#2	net4#11	6.7406e-19	$X=4.1005 $Y=0.566
C785	XI18/net2#4	net4#3	4.99933e-18	$X=3.5225 $Y=-0.8775
C786	gnd!#15	XI9/net2#2	2.74061e-17	$X=1.5465 $Y=0.177
C787	net4#25	vdd!#32	1.51701e-18	$X=3.4845 $Y=1.288
C788	net2#5	net13#5	1.19436e-18	$X=2.645 $Y=-0.686
C789	gnd!#1	net3#12	1.09913e-18	$X=4.898 $Y=0.9395
C790	XI15/net2#4	CLK#15	8.82061e-19	$X=1.6215 $Y=-0.5855
C791	gnd!#24	XI18/net2#2	5.50394e-18	$X=3.617 $Y=-0.383
C792	net3#14	XI9/net2#4	4.66306e-19	$X=1.545 $Y=0.7785
C793	gnd!#8	net4#5	1.74158e-18	$X=3.4675 $Y=-0.3985
C794	RST#3	CLK#9	5.68065e-19	$X=0.38 $Y=-0.154
C795	net4#14	CLK#3	2.25601e-18	$X=0.4945 $Y=1.214
C796	XI9/net2#4	vdd!#19	6.82605e-19	$X=1.299 $Y=0.9085
C797	CLK#5	RST#1	5.59046e-19	$X=0.38 $Y=0.1605
C798	vdd!#33	net3	1.99005e-18	$X=2.4175 $Y=1.2925
C799	net1#8	net13#4	2.0195e-18	$X=2.946 $Y=-0.3405
C800	CLK#5	CLK#4	2.24132e-18	$X=0.382 $Y=0.9825
C801	vdd!#24	vdd!#22	2.5873e-18	$X=3.1905 $Y=1.7035
C802	Q#7	Q#8	8.37858e-18	$X=4.856 $Y=-1.313
C803	net4#28	vdd!#36	1.85301e-18	$X=0.9725 $Y=1.1895
C804	net6#5	RST#1	3.18191e-18	$X=0.4515 $Y=-0.5255
C805	net4#14	vdd!#19	1.35424e-18	$X=0.6195 $Y=1.07
C806	net2#5	net13#4	1.05731e-18	$X=2.6355 $Y=-0.5125
C807	net2#12	gnd!#5	5.02428e-18	$X=4.1395 $Y=-0.344
C808	XI9/net2#4	CLK#8	8.09263e-19	$X=1.1215 $Y=0.6045
C809	net3#14	net3#4	9.81847e-19	$X=2.2755 $Y=0.514
C810	gnd!#23	net1#3	5.58033e-18	$X=3.4185 $Y=0.7235
C811	vdd!#17	RST#4	1.56549e-18	$X=0.6145 $Y=-1.4815
C812	net1#8	gnd!#13	1.95621e-18	$X=2.5425 $Y=0.253
C813	net2#6	net13#6	1.2476e-18	$X=2.4905 $Y=-0.85
C814	net11#5	gnd!#1	2.28986e-18	$X=4.5415 $Y=0.7785
C815	gnd!#17	XI9/net2#2	2.31793e-18	$X=1.301 $Y=0.2125
C816	net6#9	vdd!#34	6.81988e-19	$X=2.534 $Y=1.5535
C817	net1#9	net3	5.67555e-18	$X=2.2895 $Y=1.2655
C818	net4#25	net1#6	3.41401e-18	$X=2.9585 $Y=0.9975
C819	XI15/net2#3	gnd!#15	2.30406e-18	$X=1.621 $Y=-0.3885
C820	vdd!#1	net4#2	3.15742e-18	$X=3.4605 $Y=-1.3315
C821	net13#6	gnd!#11	1.59009e-18	$X=2.7305 $Y=-0.4145
C822	net4#25	net1#5	1.40629e-18	$X=3.164 $Y=1.237
C823	net1#8	XI18/net2	5.87944e-19	$X=3.997 $Y=-0.4315
C824	vdd!#33	vdd!#32	2.4181e-18	$X=3.104 $Y=1.3525
C825	net1#8	XI11/net3	3.76216e-18	$X=2.8735 $Y=0.487
C826	net13#7	vdd!#14	6.10444e-18	$X=3.159 $Y=-1.3145
C827	net11#2	net1#4	2.70104e-18	$X=3.557 $Y=0.6035
C828	net2#15	XI18/net2#4	1.68466e-18	$X=3.7925 $Y=-0.9735
C829	net4#15	XI9/net2#4	1.37194e-18	$X=0.8185 $Y=0.6935
C830	net4#23	net13#5	3.93845e-18	$X=2.896 $Y=-0.8075
C831	vdd!#35	net3	4.80642e-18	$X=2.2385 $Y=1.291
C832	vdd!#44	net4#28	4.53917e-17	$X=1.604 $Y=0.9975
C833	gnd!#29	RST#1	5.6942e-18	$X=0.376 $Y=-0.5085
C834	CLK#14	gnd!#15	1.05675e-18	$X=1.5035 $Y=-0.73
C835	vdd!#15	CLK#11	1.84742e-18	$X=2.361 $Y=-1.3415
C836	XI11/net3#2	net1#9	5.91967e-18	$X=2.3645 $Y=0.7685
C837	net2#9	gnd!#1	2.69821e-18	$X=4.4635 $Y=-0.95
C838	vdd!#44	net3#10	2.42465e-18	$X=1.8055 $Y=1.3045
C839	Q#7	vdd!#13	3.96629e-18	$X=4.714 $Y=-1.342
C840	net3#10	net3	1.19897e-18	$X=2.0575 $Y=1.266
C841	net1#8	net1#4	2.14383e-18	$X=3.4665 $Y=0.551
C842	net1#8	gnd!#25	2.73125e-18	$X=2.794 $Y=-0.2735
C843	vdd!#19	net6	7.09205e-19	$X=2.879 $Y=1.2795
C844	net4#28	gnd!#17	1.00429e-17	$X=0.968 $Y=0.0965
C845	net11#4	net3#12	7.14781e-18	$X=4.8005 $Y=1.078
C846	net4#25	vdd!#33	1.62426e-18	$X=3.03 $Y=1.272
C847	D#2	net3	2.85907e-19	$X=1.9815 $Y=1.264
C848	vdd!#7	vdd!#5	1.97931e-18	$X=2.892 $Y=-1.688
C849	net2#6	Q#6	1.21879e-17	$X=2.3885 $Y=-1.022
C850	net1#9	net3#2	1.7801e-18	$X=2.284 $Y=0.915
C851	net4#4	gnd!#24	4.93089e-18	$X=3.398 $Y=-0.708
C852	net13#3	CLK#11	4.76745e-18	$X=2.1225 $Y=-1.285
C853	net1#8	XI11/net3#2	7.6484e-19	$X=2.552 $Y=0.487
C854	net3#16	XI13/net2#2	3.77357e-18	$X=4.656 $Y=0.4105
C855	net6#9	gnd!#11	8.38758e-19	$X=2.618 $Y=0.1105
C856	XI9/net2#3	net3	3.31606e-19	$X=1.9545 $Y=1.284
C857	CLK#17	vdd!#19	4.58773e-18	$X=0.338 $Y=1.0585
C858	net13#5	gnd!#1	8.36492e-19	$X=2.9125 $Y=-0.7975
C859	net6#6	vdd!#28	1.24762e-18	$X=0.8665 $Y=1.059
C860	net4#21	XI9/net2#4	4.98549e-19	$X=0.881 $Y=0.997
C861	vdd!#15	vdd!#14	2.25055e-18	$X=3.048 $Y=-1.351
C862	XI15/net2#5	CLK#11	2.23671e-18	$X=1.9955 $Y=-1.324
C863	vdd!#33	net1#5	2.1577e-17	$X=2.89 $Y=1.3155
C864	Q#7	net2#11	2.92368e-18	$X=4.302 $Y=-1.2535
C865	net13#6	gnd!#25	2.97101e-18	$X=2.7295 $Y=-0.571
C866	net3#16	XI13/net2#4	4.6128e-18	$X=4.4105 $Y=0.837
C867	net2#5	gnd!#25	6.94791e-18	$X=2.503 $Y=-0.487
C868	vdd!#1	Q#4	1.39612e-18	$X=2.809 $Y=-1.3325
C869	net2#9	net2#2	2.07774e-18	$X=4.6345 $Y=-0.942
C870	net4#28	net1#9	2.42287e-18	$X=2.0855 $Y=1.0245
C871	net3#2	net6#2	2.79832e-18	$X=2.5755 $Y=0.8415
C872	vdd!#35	CLK#1	2.89902e-18	$X=1.8365 $Y=1.352
C873	net1#13	gnd!#1	3.90093e-18	$X=3.6365 $Y=-1.023
C874	net1#13	vdd!#5	2.25399e-18	$X=3.4505 $Y=-1.5245
C875	D#1	net3#7	8.69051e-19	$X=1.6795 $Y=0.734
C876	XI15/net2#4	CLK#13	5.04623e-18	$X=1.6225 $Y=-0.8775
C877	gnd!#1	net2	2.27642e-18	$X=4.705 $Y=-0.538
C878	XI11/net3	net6#9	1.54793e-17	$X=2.6855 $Y=0.5475
C879	vdd!#1	XI15/net2#4	2.88118e-18	$X=1.781 $Y=-0.881
C880	net1#8	Q#1	8.91645e-19	$X=2.85 $Y=-0.4165
C881	net4#28	gnd!#27	2.3126e-18	$X=1.428 $Y=-0.3835
C882	CLK#5	vdd!#37	7.057e-18	$X=0.333 $Y=1.121
C883	net2#15	net2#10	2.484e-18	$X=4.17 $Y=-0.95
C884	gnd!#1	net11#2	4.33552e-18	$X=3.7315 $Y=0.779
C885	net6#9	gnd!#13	1.74984e-18	$X=2.208 $Y=0.335
C886	net2#13	net13#5	5.80415e-19	$X=2.8695 $Y=-0.8755
C887	net4#23	XI18/net2#4	4.84863e-18	$X=3.4695 $Y=-0.8595
C888	net13#6	Q#1	3.09571e-18	$X=2.7935 $Y=-0.5965
C889	Q#7	net1#14	1.56922e-18	$X=4.117 $Y=-1.2685
C890	net2#13	net13#7	1.51991e-18	$X=2.822 $Y=-1.285
C891	RST#3	net6#7	1.12913e-17	$X=0.387 $Y=-1.071
C892	net2#5	net13#6	1.88993e-18	$X=2.4855 $Y=-0.618
C893	net13#3	CLK#12	1.15033e-18	$X=1.8255 $Y=-1.271
C894	net4#28	net3	8.91161e-19	$X=2.176 $Y=1.194
C895	net13#2	net2#6	2.50217e-17	$X=2.2345 $Y=-0.883
C896	XI9/net2#3	CLK#1	2.17857e-18	$X=1.502 $Y=1.344
C897	net3#16	gnd!#3	1.44602e-18	$X=4.5945 $Y=0.129
C898	net4#28	net6#6	4.18963e-17	$X=0.744 $Y=-0.1955
C899	net1#9	net1#5	1.4837e-18	$X=2.7295 $Y=1.271
C900	vdd!#15	net13#7	2.1577e-17	$X=2.806 $Y=-1.3075
C901	net4#17	gnd!#1	1.52981e-18	$X=3.293 $Y=-0.8785
C902	net3#11	vdd!#19	4.11448e-18	$X=4.817 $Y=1.272
C903	XI15/net2#5	CLK#12	7.78119e-18	$X=1.6155 $Y=-1.312
C904	net6#9	XI11/net3#2	3.64074e-18	$X=2.349 $Y=0.5475
C905	CLK#5	vdd!#19	1.97629e-18	$X=0.369 $Y=1.03
C906	XI11/net3	net6#3	1.31445e-18	$X=2.799 $Y=0.727
C907	net4#25	net4#9	6.18279e-18	$X=3.962 $Y=1.0845
C908	vdd!#42	net4#28	5.49067e-17	$X=0.8385 $Y=-0.543
C909	vdd!#1	CLK#11	4.825e-18	$X=2.171 $Y=-1.346
C910	gnd!#1	net3#13	6.17179e-18	$X=4.852 $Y=0.524
C911	vdd!#16	CLK#12	5.48168e-18	$X=1.5375 $Y=-1.338
C912	vdd!#18	RST#3	6.26691e-18	$X=0.3345 $Y=-1.0995
C913	net6#9	gnd!#15	2.0922e-18	$X=1.753 $Y=0.2195
C914	gnd!#26	XI11/net3#2	2.0519e-17	$X=2.252 $Y=0.4855
C915	net2#13	vdd!#15	7.64003e-19	$X=2.684 $Y=-1.342
C916	net1#8	gnd!#1	2.22221e-17	$X=3.121 $Y=0.4815
C917	net3#6	vdd!#19	1.80338e-18	$X=1.9525 $Y=0.8115
C918	net3#16	gnd!#5	2.34026e-18	$X=4.241 $Y=0.3065
C919	net11#6	net3#13	1.35028e-17	$X=4.759 $Y=0.5155
C920	vdd!#42	RST#2	3.45626e-19	$X=0.4365 $Y=-0.942
C921	net4#25	XI13/net2#4	9.89238e-19	$X=4.182 $Y=0.9335
C922	vdd!#19	CLK#1	4.02408e-18	$X=1.6785 $Y=1.3665
C923	Q#9	gnd!#1	4.34217e-18	$X=4.796 $Y=-0.535
C924	net4#25	net1#3	3.10095e-18	$X=3.4755 $Y=1.0325
C925	net2#15	gnd!#3	1.13794e-18	$X=4.493 $Y=-0.4065
C926	net2#15	net4#4	1.03887e-18	$X=3.503 $Y=-0.9455
C927	net6#9	gnd!#26	1.54538e-18	$X=2.1895 $Y=0.5345
C928	net6#7	CLK#12	1.31406e-18	$X=1.1755 $Y=-1.3025
C929	net13#6	gnd!#1	4.86458e-18	$X=2.7495 $Y=-0.725
C930	vdd!#1	RST#3	1.32977e-18	$X=0.364 $Y=-1.0075
C931	Q#3	gnd!#25	4.3967e-18	$X=2.7285 $Y=-0.77
C932	net2#7	net13#7	5.04227e-19	$X=2.461 $Y=-1.2595
C933	gnd!#13	net3#4	3.26918e-18	$X=2.253 $Y=0.461
C934	XI9/net2#3	CLK#6	4.66544e-18	$X=1.1005 $Y=1.304
C935	net1#9	vdd!#33	8.77197e-18	$X=2.608 $Y=1.2995
C936	net6#9	XI9/net2	4.52482e-19	$X=1.7055 $Y=0.541
C937	vdd!#1	Q#8	5.1745e-18	$X=4.759 $Y=-1.316
C938	vdd!#5	net4#17	1.42395e-18	$X=3.3075 $Y=-1.0135
C939	net2#13	net2#7	2.27643e-18	$X=2.3125 $Y=-1.268
C940	CLK#20	net13#2	6.60556e-19	$X=1.8585 $Y=-0.822
C941	XI18/net2#4	gnd!#1	1.2977e-18	$X=3.6545 $Y=-0.8525
C942	Q#7	net2#3	2.96809e-18	$X=4.6865 $Y=-1.0425
C943	net6#9	gnd!#17	1.54234e-18	$X=1.306 $Y=0.266
C944	vdd!#36	CLK#6	2.97613e-18	$X=1.0525 $Y=1.32
C945	net11#4	vdd!#19	4.64214e-18	$X=4.6175 $Y=1.2505
C946	net1#13	net4#3	1.8277e-18	$X=3.494 $Y=-0.8985
C947	XI13/net2#2	net11#5	6.08486e-18	$X=4.64 $Y=0.5035
C948	net3#9	net3#4	1.27419e-18	$X=2.117 $Y=0.5225
C949	net4#23	net2#10	1.47486e-18	$X=3.9775 $Y=-0.877
C950	gnd!#1	net6#9	6.60315e-18	$X=2.299 $Y=0.7635
C951	net1#13	net2#11	7.35959e-18	$X=4.088 $Y=-1.2095
C952	XI13/net2#4	net4#7	1.87922e-18	$X=4.2485 $Y=1.1925
C953	net13#2	XI15/net2	1.15801e-18	$X=2.168 $Y=-0.544
C954	vdd!#1	CLK#12	3.30025e-18	$X=1.5915 $Y=-1.3315
C955	net4#28	net6#9	3.56044e-17	$X=1.812 $Y=0.551
C956	gnd!#1	net6#4	2.41514e-18	$X=2.886 $Y=0.5115
C957	net3#3	vdd!#26	1.74992e-18	$X=2.168 $Y=1.1335
C958	XI9/net2#3	CLK#3	6.34218e-19	$X=0.695 $Y=1.3465
C959	net4#28	XI9/net2#5	9.30944e-19	$X=1.1515 $Y=0.4855
C960	net2#13	net13#3	3.17939e-18	$X=2.1665 $Y=-1.24
C961	net13	net2#5	1.37495e-17	$X=2.153 $Y=-0.5025
C962	vdd!#36	CLK#3	1.53127e-18	$X=0.6275 $Y=1.37
C963	net4#28	vdd!#26	1.67789e-18	$X=1.9795 $Y=1.4615
C964	net3#14	net1#3	1.81331e-18	$X=3.221 $Y=0.9145
C965	gnd!#21	Q#9	1.47957e-17	$X=4.7075 $Y=-0.494
C966	vdd!#9	CLK#14	1.35312e-18	$X=1.502 $Y=-1.0835
C967	net4#13	CLK#3	5.39419e-18	$X=0.451 $Y=1.35
C968	gnd!#1	Q#1	1.51897e-18	$X=2.811 $Y=-0.538
C969	vdd!#16	RST#4	1.37951e-18	$X=0.6825 $Y=-1.336
C970	net3#9	XI9/net2	1.36649e-18	$X=1.782 $Y=0.5265
C971	net11#2	net1#2	3.16313e-18	$X=3.5525 $Y=0.9265
C972	vdd!#35	vdd!#33	2.05435e-18	$X=2.4795 $Y=1.3395
C973	net2#7	vdd!#15	5.3549e-18	$X=2.413 $Y=-1.2855
C974	net4#28	CLK#17	1.08069e-17	$X=0.4065 $Y=0.7115
C975	net1#13	net1#14	9.08012e-19	$X=3.929 $Y=-1.2305
C976	gnd!#1	XI13/net2#5	6.26145e-18	$X=4.2655 $Y=0.52
C977	vdd!#42	vdd!#1	2.13527e-18	$X=0.925 $Y=-1.0935
C978	gnd!#8	net11#3	1.83687e-18	$X=3.563 $Y=0.418
C979	vdd!#37	CLK#3	6.13295e-18	$X=0.375 $Y=1.365
C980	net4#28	XI9/net2#4	4.10846e-18	$X=1.2155 $Y=0.7675
C981	net13#2	CLK#15	6.5954e-19	$X=1.701 $Y=-0.554
C982	XI15/net2#2	gnd!#25	4.07227e-18	$X=2.467 $Y=-0.393
C983	CLK#20	vdd!#17	1.15476e-18	$X=0.7935 $Y=-1.5475
C984	XI13/net2#3	vdd!#19	6.55369e-18	$X=4.2075 $Y=1.329
C985	net3#16	vdd!#19	1.49713e-18	$X=4.3455 $Y=0.8085
C986	gnd!#26	net3#3	7.97859e-18	$X=2.17 $Y=0.648
C987	vdd!#19	CLK#3	6.12742e-18	$X=0.451 $Y=1.374
C988	net4#17	Q#2	8.65264e-19	$X=3.091 $Y=-0.9035
C989	vdd!#3	vdd!#1	6.38816e-18	$X=4.339 $Y=-1.76
C990	net6#7	RST#4	4.96168e-18	$X=0.4345 $Y=-1.3145
C991	net4#23	XI15/net2#2	6.68645e-19	$X=2.224 $Y=-0.4135
C992	net2#6	gnd!#1	8.52102e-19	$X=2.271 $Y=-0.9465
C993	Q#2	net4#3	2.01552e-18	$X=3.1365 $Y=-0.91
C994	net6#2	net1#2	1.8496e-18	$X=3.195 $Y=0.896
C995	net1#13	XI18/net2#5	8.36244e-18	$X=3.597 $Y=-1.2345
C996	vdd!#18	RST#4	6.91542e-18	$X=0.387 $Y=-1.3325
C997	net2#12	Q#9	2.54537e-18	$X=4.475 $Y=-0.5225
C998	net3#16	net3#13	3.84916e-18	$X=4.812 $Y=0.5575
C999	net2#13	vdd!#16	1.7253e-18	$X=1.763 $Y=-1.352
C1000	XI18/net2#3	gnd!#8	3.9004e-18	$X=3.532 $Y=-0.3375
C1001	net11#2	vdd!#20	1.02575e-18	$X=3.939 $Y=1.329
C1002	net13#2	gnd!#1	1.87969e-18	$X=2.178 $Y=-0.7565
C1003	vdd!#35	net1#9	2.37627e-17	$X=2.2525 $Y=1.297
C1004	net13#2	net2#5	1.73758e-17	$X=2.2315 $Y=-0.6115
C1005	CLK#20	net6#6	3.77504e-17	$X=0.8665 $Y=-0.703
C1006	net13#2	gnd!#13	2.64293e-18	$X=2.17 $Y=-0.4
C1007	vdd!#1	RST#4	3.16192e-18	$X=0.4285 $Y=-1.3325
C1008	net11#2	net4#9	1.83284e-18	$X=3.939 $Y=0.98
C1009	net4#23	CLK#14	1.75706e-18	$X=1.637 $Y=-0.8915
C1010	XI18/net2#4	net4#2	1.25413e-18	$X=3.553 $Y=-1.135
C1011	net2#10	gnd!#1	1.72855e-18	$X=4.161 $Y=-0.876
C1012	net6#6	CLK#15	1.09457e-18	$X=1.499 $Y=-0.49
C1013	vdd!#5	XI18/net2#5	1.6001e-18	$X=3.4785 $Y=-1.484
C1014	net4#28	vdd!#35	1.83747e-18	$X=1.9805 $Y=1.152
C1015	net1#13	XI18/net2#2	2.48735e-18	$X=3.9165 $Y=-0.4675
C1016	XI15/net2#2	net13	2.07922e-17	$X=2.076 $Y=-0.42
C1017	vdd!#1	net2#11	3.504e-18	$X=4.141 $Y=-1.245
C1018	gnd!#1	net3#9	5.88397e-18	$X=1.946 $Y=0.528
C1019	net1#13	vdd!#14	2.48033e-18	$X=3.448 $Y=-1.285
C1020	net4#25	vdd!#19	5.95374e-18	$X=3.561 $Y=1.1435
C1021	net6#9	gnd!#28	2.14095e-18	$X=1.188 $Y=0.5075
C1022	net3#6	net3#2	7.85176e-19	$X=2.1675 $Y=0.828
C1023	net3#16	net11#6	2.34251e-18	$X=4.652 $Y=0.5355
C1024	vdd!#19	XI13/net2	4.4586e-19	$X=4.75 $Y=0.5335
C1025	vdd!#5	vdd!#1	5.16455e-18	$X=3.3505 $Y=-1.6925
C1026	gnd!#1	XI13/net2#4	6.10811e-19	$X=4.3485 $Y=0.8715
C1027	net4#28	gnd!#28	2.16539e-18	$X=0.975 $Y=0.424
C1028	net1#6	net6	1.14019e-18	$X=2.843 $Y=1.1625
C1029	net3#14	XI9/net2#2	2.76073e-18	$X=1.7765 $Y=0.3575
C1030	XI9/net2#2	gnd!#26	3.40231e-18	$X=1.9375 $Y=0.4195
C1031	net4#28	net3#3	9.22691e-19	$X=2.0545 $Y=0.7405
C1032	gnd!#1	net11#3	3.01015e-18	$X=3.6045 $Y=0.521
C1033	CLK#20	RST#1	5.07981e-19	$X=0.4805 $Y=-0.584
C1034	XI15/net2#3	XI15/net2#2	1.31675e-17	$X=1.8355 $Y=-0.4245
C1035	net3#13	XI13/net2	3.9444e-18	$X=4.7915 $Y=0.5255
C1036	net1#3	net11#2	1.17029e-17	$X=3.5295 $Y=0.9435
C1037	CLK#20	gnd!#1	6.33702e-18	$X=1.107 $Y=-0.9405
C1038	net6#6	net4#14	1.28067e-18	$X=0.5885 $Y=0.829
C1039	net1#8	XI18/net2#2	2.02951e-18	$X=3.762 $Y=-0.0905
C1040	net1#13	net4#4	2.92965e-18	$X=3.4395 $Y=-0.913
C1041	gnd!#15	CLK#15	2.87098e-18	$X=1.56 $Y=-0.4295
C1042	net6#6	CLK#9	7.43665e-19	$X=0.431 $Y=0.4735
C1043	net3#10	net1#9	1.72144e-18	$X=1.9425 $Y=1.2525
C1044	net13#3	net2#7	1.28901e-17	$X=2.181 $Y=-1.2405
C1045	net4#28	gnd!#1	4.47232e-18	$X=1.0115 $Y=0.1185
C1046	net2#12	gnd!#21	6.9448e-18	$X=4.3905 $Y=-0.4805
C1047	net2#10	net2#2	1.7386e-18	$X=4.522 $Y=-0.9165
C1048	net3#9	gnd!#26	1.50555e-17	$X=2.017 $Y=0.515
C1049	net4#25	vdd!#44	6.13808e-18	$X=3.0635 $Y=1.307
C1050	net3#16	XI13/net2#5	2.09371e-18	$X=4.3195 $Y=0.5535
C1051	net11#6	XI13/net2	2.3632e-18	$X=4.739 $Y=0.5195
C1052	net4#10	net4#9	1.07438e-17	$X=4.0995 $Y=0.9695
C1053	gnd!#30	gnd!	4.33391e-18	$X=0.3245 $Y=0.47
C1054	net4	net4#9	4.07147e-17	$X=4.054 $Y=0.5015
C1055	gnd!#5	net4	2.11087e-18	$X=4.0695 $Y=-0.0985
C1056	gnd!#22	net4	4.41673e-18	$X=4.0745 $Y=0.202
C1057	CLK#4	CLK#7	3.68462e-18	$X=0.6095 $Y=0.941
C1058	net4#15	CLK#7	8.92865e-19	$X=0.779 $Y=0.739
C1059	CLK#7	CLK#2	9.77239e-19	$X=1.0585 $Y=1.2205
C1060	net4#10	vdd!	5.52674e-18	$X=4.141 $Y=0.884
C1061	gnd!#24	gnd!	1.61288e-18	$X=3.376 $Y=-0.435
C1062	gnd!	gnd!#1	4.03805e-17	$X=2.5895 $Y=-0.054
C1063	gnd!#29	gnd!	3.26604e-18	$X=0.3245 $Y=-0.4525
C1064	XI18/net2#2	net4#10	3.56001e-19	$X=4.0815 $Y=0.4225
C1065	gnd!#21	gnd!	4.5685e-18	$X=4.6055 $Y=-0.4525
C1066	gnd!#11	gnd!	5.41988e-18	$X=2.709 $Y=-0.0775
C1067	net4#14	CLK#7	3.82565e-18	$X=0.808 $Y=0.9825
C1068	gnd!#20	gnd!	1.20726e-17	$X=0.323 $Y=0.0085
C1069	CLK	XI9/net2#4	2.42975e-17	$X=0.907 $Y=0.9215
C1070	CLK	vdd!	1.00168e-17	$X=0.5905 $Y=0.9595
C1071	gnd!#3	gnd!	9.00157e-18	$X=4.5935 $Y=-0.0775
C1072	net6#9	CLK	3.17967e-18	$X=0.9645 $Y=0.921
C1073	net6#9	CLK#7	1.5786e-18	$X=1.262 $Y=0.8865
C1074	gnd!#13	gnd!	7.807e-18	$X=2.17 $Y=0.097
C1075	gnd!#27	gnd!	4.15921e-18	$X=1.4845 $Y=-0.435
C1076	CLK	vdd!#28	2.12031e-18	$X=0.728 $Y=1.228
C1077	gnd!#5	gnd!	6.5661e-18	$X=4.0575 $Y=0.0885
C1078	gnd!#22	gnd!	2.58428e-18	$X=4.073 $Y=0.4525
C1079	net4#28	CLK	2.95995e-18	$X=0.636 $Y=0.848
C1080	net11#2	net4#10	4.56945e-18	$X=4.0275 $Y=0.8565
C1081	gnd!#25	gnd!	2.13745e-18	$X=2.714 $Y=-0.4525
C1082	net4	vdd!	2.23442e-18	$X=4.0665 $Y=-0.2125
C1083	CLK	net4#14	8.10659e-18	$X=0.5855 $Y=1.014
C1084	net1#2	net4#10	2.92035e-18	$X=3.7275 $Y=0.931
C1085	net6#6	CLK	2.64445e-18	$X=0.5975 $Y=0.6885
C1086	gnd!#15	gnd!	7.11582e-18	$X=1.488 $Y=-0.073
C1087	gnd!#28	gnd!	2.43781e-18	$X=0.9865 $Y=0.4525
C1088	CLK#17	CLK	1.33249e-17	$X=0.484 $Y=0.967
C1089	CLK	vdd!#36	5.97107e-18	$X=0.772 $Y=1.154
C1090	gnd!#1	CLK	2.94308e-18	$X=0.6055 $Y=0.952
C1091	net11#2	net4	8.3418e-18	$X=3.9385 $Y=0.188
C1092	net4	net4#10	6.31778e-18	$X=4.113 $Y=0.4695
C1093	net4#25	net4	2.15765e-18	$X=3.965 $Y=0.1245
C1094	gnd!#8	gnd!	1.22296e-17	$X=3.413 $Y=0.0935
C1095	gnd!#17	gnd!	1.1868e-17	$X=0.987 $Y=0.0895
C1096	gnd!#26	gnd!	1.24082e-18	$X=2.1715 $Y=0.483
C1097	CLK#7	vdd!	6.96638e-18	$X=1.0415 $Y=0.9085
C1098	CLK	vdd!#19	1.8784e-18	$X=0.6405 $Y=0.983
C1099	XI9/net2#4	CLK#7	4.4976e-18	$X=1.131 $Y=0.8965
C1100	gnd!#28	CLK	4.41673e-18	$X=0.823 $Y=0.6575
C1101	net4	XI13/net2#4	2.42975e-17	$X=4.214 $Y=0.327
C1102	CLK	CLK#2	1.25875e-18	$X=0.8615 $Y=1.287
C1103	net11#5	net4	7.32376e-19	$X=4.2695 $Y=0.193
C1104	net11#5	net4#10	1.23098e-18	$X=4.266 $Y=0.856
C1105	XI13/net2#4	net4#10	3.3418e-18	$X=4.2245 $Y=0.882
C1106	CLK	CLK#4	1.62753e-18	$X=0.458 $Y=0.9565
C1107	gnd!#23	gnd!	2.25314e-18	$X=3.411 $Y=0.47
C1108	CLK	CLK#7	7.15669e-18	$X=0.8465 $Y=0.9305
C1109	CLK#4	CLK#6	3.25959e-19	$X=0.729 $Y=1.12
C1110	CLK#9	CLK#7	4.70132e-19	$X=0.627 $Y=0.6785
C1111	CLK#2	CLK#1	5.80811e-19	$X=1.414 $Y=1.44
C1112	CLK#17	CLK#9	6.76078e-19	$X=0.3825 $Y=0.608
C1113	RST#2	CLK#12	1.03327e-19	$X=0.773 $Y=-1.056
C1114	RST#1	CLK#13	1.41953e-19	$X=1.0165 $Y=-0.718
C1115	gnd!#20	CLK	5.43786e-19	$X=0.443 $Y=0.4615
C1116	gnd!#30	CLK#8	6.00773e-19	$X=0.816 $Y=0.5025
C1117	CLK#17	gnd!#17	6.73841e-19	$X=0.746 $Y=0.342
C1118	gnd!#28	CLK#7	7.01574e-19	$X=1.0085 $Y=0.6675
C1119	gnd!#17	CLK	7.3282e-19	$X=0.765 $Y=0.564
C1120	CLK#17	gnd!#28	8.30909e-19	$X=0.8325 $Y=0.551
C1121	vdd!#5	CLK#11	2.14673e-19	$X=2.564 $Y=-1.4555
C1122	vdd!#33	CLK#1	2.34383e-19	$X=2.0465 $Y=1.3535
C1123	vdd!#44	CLK#3	3.96205e-19	$X=0.6245 $Y=1.402
C1124	vdd!#16	CLK#20	3.98667e-19	$X=1.3755 $Y=-1.2585
C1125	vdd!#14	CLK#11	4.04894e-19	$X=2.5985 $Y=-1.3465
C1126	vdd!#18	CLK#12	4.07992e-19	$X=1.0685 $Y=-1.3325
C1127	vdd!#35	CLK#6	4.19421e-19	$X=1.346 $Y=1.3095
C1128	vdd!#37	CLK#6	4.71547e-19	$X=0.8865 $Y=1.3165
C1129	vdd!#7	CLK#11	4.81643e-19	$X=2.473 $Y=-1.536
C1130	vdd!#17	CLK#12	5.16686e-19	$X=0.993 $Y=-1.5225
C1131	CLK	vdd!#30	5.68573e-19	$X=0.3925 $Y=1.485
C1132	vdd!#36	CLK#7	6.51067e-19	$X=1.0165 $Y=1.0955
C1133	vdd!#15	CLK#12	6.66755e-19	$X=2.0345 $Y=-1.3325
C1134	vdd!#36	CLK#1	6.82924e-19	$X=1.431 $Y=1.3655
C1135	CLK#17	vdd!#30	7.37546e-19	$X=0.291 $Y=1.6205
C1136	vdd!#16	CLK#11	7.61121e-19	$X=1.922 $Y=-1.3465
C1137	vdd!#42	CLK#12	7.77834e-19	$X=1.4625 $Y=-1.282
C1138	vdd!#44	CLK#2	8.2869e-19	$X=1.221 $Y=1.562
C1139	net6#7	CLK#13	4.19591e-19	$X=1.341 $Y=-0.968
C1140	net6#6	CLK#14	4.67259e-19	$X=1.419 $Y=-0.843
C1141	net6#9	CLK#2	5.03226e-19	$X=1.299 $Y=1.4075
C1142	net6#5	CLK#15	5.5944e-19	$X=1.168 $Y=-0.501
C1143	net6#6	CLK#2	6.03981e-19	$X=1.002 $Y=1.2255
C1144	net6#9	CLK#1	6.19106e-19	$X=1.757 $Y=1.2765
C1145	net6#6	CLK#8	6.43042e-19	$X=1.04 $Y=0.4435
C1146	net13	CLK#15	2.84195e-19	$X=1.7635 $Y=-0.494
C1147	net13#7	CLK#11	4.26736e-19	$X=2.4105 $Y=-1.316
C1148	net13#3	CLK#13	4.4017e-19	$X=1.7365 $Y=-0.992
C1149	Q#6	gnd!#11	5.87234e-19	$X=2.754 $Y=-0.356
C1150	net4#15	CLK#4	4.28368e-19	$X=0.442 $Y=0.835
C1151	net4#28	CLK#7	4.4698e-19	$X=1.03 $Y=0.826
C1152	net4#28	CLK#6	4.6718e-19	$X=1.069 $Y=1.235
C1153	net4#23	CLK#13	6.39533e-19	$X=1.673 $Y=-0.881
C1154	net4#13	CLK#6	8.32843e-19	$X=0.924 $Y=1.3075
C1155	XI9/net2#2	CLK#9	1.53041e-19	$X=0.734 $Y=0.4935
C1156	XI9/net2#4	CLK#9	1.70882e-19	$X=0.633 $Y=0.6425
C1157	XI9/net2#3	CLK#7	1.90549e-19	$X=1.093 $Y=1.0665
C1158	CLK#17	XI9/net2#4	2.00446e-19	$X=0.9685 $Y=0.909
C1159	XI9/net2#2	CLK#2	2.80483e-19	$X=1.297 $Y=1.0175
C1160	XI15/net2#5	CLK#13	2.59666e-19	$X=1.5995 $Y=-0.98
C1161	net13#2	Q#1	1.58773e-19	$X=2.668 $Y=-0.5905
C1162	net13	Q#1	2.31921e-19	$X=2.512 $Y=-0.518
C1163	Q#6	net13#5	2.35957e-19	$X=2.914 $Y=-0.873
C1164	net13#2	Q#2	2.40966e-19	$X=2.681 $Y=-0.9005
C1165	net13#3	Q#4	2.77043e-19	$X=2.5605 $Y=-1.2915
C1166	gnd!#1	net6#3	3.68338e-19	$X=2.8015 $Y=0.788
C1167	Q#3	net4#3	2.61541e-19	$X=3.165 $Y=-0.9325
C1168	Q#2	net4#2	3.28711e-19	$X=3.018 $Y=-1.056
C1169	Q#8	net4	4.13169e-19	$X=4.4475 $Y=-0.7735
C1170	Q#1	net4#3	4.27389e-19	$X=3.157 $Y=-0.718
C1171	net4#23	Q#3	5.09869e-19	$X=2.7415 $Y=-0.985
C1172	Q#6	net4#4	5.83529e-19	$X=3.3515 $Y=-0.9465
C1173	net4#23	Q#2	6.1676e-19	$X=2.8075 $Y=-0.9295
C1174	vdd!#40	vdd!#32	5.39147e-19	$X=2.7835 $Y=1.5765
C1175	vdd!#13	vdd!	5.55245e-19	$X=4.614 $Y=-1.344
C1176	vdd!#38	vdd!	5.78335e-19	$X=0.7695 $Y=-1.635
C1177	vdd!#40	vdd!#33	6.4735e-19	$X=2.6165 $Y=1.572
C1178	vdd!#40	vdd!#22	8.20441e-19	$X=2.981 $Y=1.68
C1179	vdd!#44	vdd!#33	8.50527e-19	$X=2.658 $Y=1.402
C1180	vdd!#42	vdd!#18	8.53659e-19	$X=0.4035 $Y=-1.282
C1181	vdd!#42	vdd!#9	9.83792e-19	$X=1.3045 $Y=-1.531
C1182	vdd!#40	vdd!#35	1.04633e-18	$X=2.453 $Y=1.571
C1183	vdd!#44	vdd!#35	1.20126e-18	$X=2.1575 $Y=1.3985
C1184	vdd!#38	vdd!#16	1.23826e-18	$X=0.9595 $Y=-1.561
C1185	vdd!#38	vdd!#18	1.27954e-18	$X=0.648 $Y=-1.5575
C1186	vdd!#17	vdd!#16	1.29125e-18	$X=0.916 $Y=-1.549
C1187	vdd!#12	vdd!#1	1.35245e-18	$X=0.3285 $Y=-1.6875
C1188	vdd!#22	vdd!#19	1.35245e-18	$X=3.396 $Y=1.7065
C1189	vdd!#40	vdd!#24	1.37444e-18	$X=2.6345 $Y=1.67
C1190	vdd!#36	vdd!	1.46637e-18	$X=0.9795 $Y=1.377
C1191	vdd!#44	vdd!#24	1.61442e-18	$X=2.691 $Y=1.6935
C1192	vdd!#7	vdd!#1	1.74092e-18	$X=2.707 $Y=-1.6875
C1193	vdd!#30	vdd!#19	1.74765e-18	$X=0.334 $Y=1.7065
C1194	vdd!#38	vdd!#9	1.76e-18	$X=0.924 $Y=-1.6475
C1195	vdd!#44	vdd!#28	1.77147e-18	$X=1.2785 $Y=1.695
C1196	net6#9	vdd!#24	2.84666e-19	$X=2.6955 $Y=1.5345
C1197	net6#6	vdd!#17	3.19269e-19	$X=0.7595 $Y=-1.5155
C1198	net6#6	vdd!#19	3.69339e-19	$X=0.808 $Y=-0.161
C1199	vdd!#44	net6#6	4.35308e-19	$X=1.2935 $Y=0.5285
C1200	net6#9	vdd!#25	5.36948e-19	$X=2.505 $Y=1.5875
C1201	net2#13	Q#3	2.81087e-19	$X=2.721 $Y=-1.0435
C1202	net2#7	Q#4	5.27961e-19	$X=2.5895 $Y=-1.2995
C1203	net2#11	Q#8	5.74626e-19	$X=4.4145 $Y=-1.2645
C1204	net1#8	gnd!#26	6.71497e-19	$X=2.355 $Y=0.487
C1205	gnd!#1	net1#6	7.71844e-19	$X=2.767 $Y=0.968
C1206	net1#6	vdd!#19	4.40403e-19	$X=2.7575 $Y=0.9935
C1207	vdd!#40	net1#9	6.40199e-19	$X=2.5145 $Y=1.5675
C1208	net1#14	vdd!	7.44585e-19	$X=3.969 $Y=-1.2575
C1209	net4#17	gnd!#24	3.51907e-19	$X=3.3175 $Y=-0.7585
C1210	gnd!#22	net4#10	4.7549e-19	$X=4.1105 $Y=0.67
C1211	gnd!#25	net4#5	5.07905e-19	$X=3.216 $Y=-0.4835
C1212	net4#17	gnd!#8	5.31824e-19	$X=3.3105 $Y=-0.7565
C1213	net4#23	gnd!#8	5.32871e-19	$X=3.224 $Y=-0.188
C1214	net4#28	gnd!#30	5.75703e-19	$X=0.3735 $Y=0.4395
C1215	net4#28	gnd!#29	5.75703e-19	$X=0.3735 $Y=-0.3985
C1216	net4#25	gnd!#8	6.71264e-19	$X=3.513 $Y=0.4505
C1217	gnd!#23	net4#11	7.21369e-19	$X=3.916 $Y=0.5025
C1218	net4#23	gnd!#25	7.62896e-19	$X=2.7205 $Y=-0.5115
C1219	net4#25	gnd!#1	7.97892e-19	$X=3.6495 $Y=1.0585
C1220	net4#25	gnd!#22	8.0124e-19	$X=4.008 $Y=0.5665
C1221	gnd!#5	net4#9	9.00512e-19	$X=4.054 $Y=0.758
C1222	net4#23	gnd!#27	9.12286e-19	$X=1.659 $Y=-0.4955
C1223	gnd!#1	net3#6	4.7578e-19	$X=1.948 $Y=0.785
C1224	net1#8	net6#2	4.76211e-19	$X=2.9125 $Y=0.802
C1225	net1#8	net6#4	6.53744e-19	$X=2.9085 $Y=0.511
C1226	vdd!#7	net4#2	3.24637e-19	$X=3.0055 $Y=-1.547
C1227	net4#28	vdd!#25	3.6626e-19	$X=2.3725 $Y=1.5885
C1228	vdd!#22	net4#7	4.59949e-19	$X=3.698 $Y=1.5855
C1229	net4	vdd!#20	5.58528e-19	$X=4.0705 $Y=0.7225
C1230	vdd!#13	net4#2	6.05855e-19	$X=3.9345 $Y=-1.3325
C1231	vdd!#5	net4#4	6.4339e-19	$X=3.401 $Y=-1.105
C1232	net4#13	vdd!	6.89548e-19	$X=0.5095 $Y=1.327
C1233	vdd!#14	net4	6.92785e-19	$X=3.729 $Y=-0.775
C1234	vdd!#3	net4	7.79659e-19	$X=4.215 $Y=-0.9235
C1235	vdd!#15	net4#2	7.96914e-19	$X=3.17 $Y=-1.3325
C1236	vdd!#32	net4#7	7.99118e-19	$X=3.8895 $Y=1.3775
C1237	vdd!#31	net4#6	8.01911e-19	$X=4.522 $Y=1.3655
C1238	net4#25	vdd!#24	8.02646e-19	$X=2.962 $Y=1.577
C1239	net4#23	vdd!#16	9.11865e-19	$X=1.757 $Y=-1.249
C1240	gnd!#26	XI9/net2	3.11563e-19	$X=1.7935 $Y=0.515
C1241	vdd!#32	net3	2.63168e-19	$X=2.6015 $Y=1.299
C1242	net3#14	vdd!#33	3.92018e-19	$X=2.683 $Y=1.1185
C1243	net3#7	vdd!#19	4.80032e-19	$X=1.7785 $Y=0.914
C1244	gnd!#24	XI15/net2#2	2.0383e-19	$X=2.875 $Y=-0.383
C1245	net2#13	vdd!#5	5.81926e-19	$X=3.1585 $Y=-1.592
C1246	net1#7	net1#4	2.85707e-19	$X=3.2445 $Y=0.671
C1247	net1#8	net1#12	4.68791e-19	$X=3.7935 $Y=-0.3105
C1248	net1#13	net1#12	5.83605e-19	$X=3.9165 $Y=-0.617
C1249	net1#6	net1#2	7.88695e-19	$X=3.292 $Y=0.961
C1250	net3#3	net6#2	1.90431e-19	$X=2.646 $Y=0.827
C1251	net3#9	net6#4	1.94945e-19	$X=2.4545 $Y=0.5205
C1252	net3#6	net6#2	2.10895e-19	$X=2.595 $Y=0.823
C1253	net3#3	net6#3	2.65991e-19	$X=2.635 $Y=0.793
C1254	vdd!#19	XI9/net2	2.18431e-19	$X=1.6715 $Y=0.5335
C1255	net4#23	net13#7	3.4386e-19	$X=2.8735 $Y=-1.168
C1256	net13#5	net4#4	4.44985e-19	$X=3.1835 $Y=-0.852
C1257	net1#10	net11#2	4.10296e-19	$X=3.186 $Y=0.6075
C1258	vdd!#1	XI15/net2	2.18431e-19	$X=2.1685 $Y=-0.512
C1259	net1#3	net4#9	1.96715e-19	$X=3.717 $Y=1.05
C1260	net1#8	net4#5	2.56868e-19	$X=3.4395 $Y=-0.391
C1261	net1	net4#8	2.98133e-19	$X=3.974 $Y=1.169
C1262	net4#5	net1#3	3.47824e-19	$X=3.4605 $Y=-0.034
C1263	net1#12	net4#5	3.66276e-19	$X=3.6315 $Y=-0.507
C1264	net1#8	net4#10	3.7428e-19	$X=3.953 $Y=0.8105
C1265	net1#4	net4#10	4.70132e-19	$X=3.7455 $Y=0.68
C1266	net4#5	net1#4	4.86317e-19	$X=3.4935 $Y=0.002
C1267	net1#14	net4#2	4.91029e-19	$X=3.7615 $Y=-1.286
C1268	net1#13	net4#5	5.25937e-19	$X=3.4935 $Y=-0.5475
C1269	net4#25	net1#9	5.33452e-19	$X=2.8025 $Y=1.19
C1270	net4	net1#2	6.6945e-19	$X=3.645 $Y=0.675
C1271	net1#2	net4#8	7.08197e-19	$X=3.959 $Y=1.0465
C1272	net4#25	net1#2	7.73046e-19	$X=3.528 $Y=0.9685
C1273	net1#6	net3	2.19432e-19	$X=2.449 $Y=1.164
C1274	net1#7	net3#2	3.93146e-19	$X=2.6075 $Y=0.813
C1275	net1#10	net3#4	4.83486e-19	$X=2.501 $Y=0.525
C1276	net1#5	net3	5.46718e-19	$X=2.4835 $Y=1.278
C1277	net3#14	net1#6	5.94237e-19	$X=2.6905 $Y=0.876
C1278	net3#3	net1#6	6.13528e-19	$X=2.437 $Y=0.88
C1279	net11#6	net4#11	2.33706e-19	$X=4.3625 $Y=0.513
C1280	net11#2	net4#8	2.76509e-19	$X=4.1365 $Y=1.0625
C1281	net11	net4#6	3.35314e-19	$X=4.385 $Y=1.335
C1282	net11#5	net4#7	3.93492e-19	$X=4.294 $Y=1.206
C1283	net1#13	net2#2	4.3672e-19	$X=4.621 $Y=-0.946
C1284	net1#13	net2#5	4.759e-19	$X=2.509 $Y=-0.6165
C1285	net1#12	net2	4.87157e-19	$X=4.4615 $Y=-0.5345
C1286	net1#13	net2#9	4.99888e-19	$X=4.3415 $Y=-0.971
C1287	net1#8	net2#5	6.72129e-19	$X=2.447 $Y=-0.3105
C1288	net4#23	net4#3	7.17951e-19	$X=3.4185 $Y=-0.881
C1289	net4#28	net4#14	8.14838e-19	$X=0.6175 $Y=0.9595
C1290	net4#17	net4#3	8.47362e-19	$X=3.369 $Y=-0.8815
C1291	net3#12	net4#8	2.00734e-19	$X=4.333 $Y=1.0595
C1292	net4#28	net3#8	2.16887e-19	$X=1.6845 $Y=0.488
C1293	net3#16	net4#8	2.43488e-19	$X=4.1945 $Y=1.073
C1294	net3#11	net4#7	2.56628e-19	$X=4.536 $Y=1.321
C1295	net4#25	net3#11	3.3718e-19	$X=4.664 $Y=1.232
C1296	net3#12	net4#10	3.77856e-19	$X=4.5375 $Y=0.915
C1297	net3#16	net4#9	6.06577e-19	$X=4.149 $Y=1.0065
C1298	net3#16	net4	6.37857e-19	$X=4.185 $Y=0.011
C1299	net2#6	net4#2	1.26247e-19	$X=2.8785 $Y=-1.14
C1300	net2#5	net4#5	2.07794e-19	$X=3.095 $Y=-0.507
C1301	net2#6	net4#4	2.39255e-19	$X=2.989 $Y=-0.9165
C1302	net4	net2#2	3.047e-19	$X=4.557 $Y=-0.762
C1303	net2#11	net4#2	3.42894e-19	$X=3.847 $Y=-1.2775
C1304	net4#3	net2#2	3.59877e-19	$X=4.1085 $Y=-0.91
C1305	net2#13	net4#4	3.8141e-19	$X=3.312 $Y=-0.9485
C1306	net4#3	net2#3	3.927e-19	$X=3.971 $Y=-0.933
C1307	net2#12	net4#11	4.1395e-19	$X=4.1725 $Y=0.169
C1308	net2#10	net4#3	5.12619e-19	$X=3.7265 $Y=-0.882
C1309	net2#13	net4#17	5.75423e-19	$X=3.245 $Y=-0.9125
C1310	net3#6	net3#4	3.43761e-19	$X=2.178 $Y=0.592
C1311	net3#7	net3#2	6.03021e-19	$X=2.0825 $Y=0.865
C1312	net1#8	XI18/net2#4	1.87494e-19	$X=3.5165 $Y=-0.4825
C1313	net3#14	XI9/net2	1.76125e-19	$X=1.7135 $Y=0.522
C1314	net3#6	XI9/net2	1.97249e-19	$X=1.7325 $Y=0.5875
C1315	XI9/net2#4	net3#2	2.11102e-19	$X=2.036 $Y=0.8525
C1316	net2#10	net2#3	5.5798e-19	$X=4.436 $Y=-0.9485
C1317	net11#3	XI13/net2	2.1433e-19	$X=4.431 $Y=0.5245
C1318	XI18/net2#5	net4#3	2.49279e-19	$X=3.4995 $Y=-0.98
C1319	XI18/net2#2	net4#9	2.64655e-19	$X=4.018 $Y=0.445
C1320	XI18/net2#4	net2#2	2.93121e-19	$X=4.4645 $Y=-0.918
C1321	CLK	gnd!	1.88802e-18	$X=0.6035 $Y=0.952
C1322	D	gnd!	1.15378e-17	$X=1.5675 $Y=0.8935
C1323	Q	gnd!	6.35845e-18	$X=4.804 $Y=-0.9475
C1324	RST	gnd!	1.64349e-19	$X=0.2485 $Y=-0.9995
C1325	vdd!	gnd!	5.3172e-18	$X=2.641 $Y=-0.1285
C1326	net4	gnd!	1.97646e-18	$X=4.0565 $Y=-0.212
C1327	net4#6	gnd!	8.17649e-19	$X=4.758 $Y=1.353
C1328	net2#4	gnd!	5.13482e-19	$X=4.7065 $Y=-1.3255
C1329	net4#7	gnd!	3.33607e-19	$X=4.17 $Y=1.379
C1330	net4	gnd!	1.28211e-18	$X=4.0565 $Y=-0.212
C1331	net1	gnd!	8.13538e-19	$X=3.5095 $Y=1.3445
C1332	net4#2	gnd!	4.13356e-19	$X=3.4725 $Y=-1.318
C1333	net6	gnd!	1.3832e-18	$X=2.886 $Y=1.268
C1334	Q#4	gnd!	3.85801e-18	$X=2.8115 $Y=-1.3255
C1335	net3	gnd!	3.77873e-18	$X=2.268 $Y=1.268
C1336	CLK#11	gnd!	8.27995e-18	$X=2.1685 $Y=-1.3355
C1337	CLK#1	gnd!	1.11317e-17	$X=1.6705 $Y=1.3535
C1338	CLK#12	gnd!	2.21629e-18	$X=1.582 $Y=-1.318
C1339	CLK#6	gnd!	1.5004e-18	$X=1.0805 $Y=1.297
C1340	CLK#3	gnd!	4.46291e-19	$X=0.422 $Y=1.359
C1341	RST#4	gnd!	4.41719e-19	$X=0.4175 $Y=-1.3255
C1342	XI13/net2	gnd!	6.95442e-18	$X=4.7635 $Y=0.5235
C1343	net2	gnd!	1.87085e-17	$X=4.7065 $Y=-0.5385
C1344	net4#11	gnd!	9.92686e-18	$X=4.173 $Y=0.516
C1345	XI18/net2	gnd!	6.08399e-18	$X=4.0645 $Y=-0.505
C1346	net1#4	gnd!	9.03707e-18	$X=3.5095 $Y=0.5575
C1347	net4#5	gnd!	7.94648e-18	$X=3.475 $Y=-0.498
C1348	net6#4	gnd!	7.18202e-18	$X=2.8865 $Y=0.5115
C1349	Q#1	gnd!	1.51324e-17	$X=2.8115 $Y=-0.5385
C1350	net3#4	gnd!	6.95245e-18	$X=2.2675 $Y=0.5155
C1351	XI15/net2	gnd!	9.24063e-18	$X=2.1675 $Y=-0.505
C1352	XI9/net2	gnd!	5.04482e-18	$X=1.668 $Y=0.5235
C1353	CLK#15	gnd!	1.10372e-17	$X=1.579 $Y=-0.498
C1354	CLK#8	gnd!	1.05008e-17	$X=1.0805 $Y=0.516
C1355	CLK#9	gnd!	1.08926e-17	$X=0.4175 $Y=0.5575
C1356	RST#1	gnd!	1.18222e-17	$X=0.4175 $Y=-0.5385
C1357	XI13/net2#2	gnd!	2.66435e-17	$X=4.674 $Y=0.316
C1358	net2#3	gnd!	5.7508e-19	$X=4.6335 $Y=-0.9975
C1359	net4#9	gnd!	4.74301e-19	$X=4.0355 $Y=1.077
C1360	XI18/net2#2	gnd!	2.36622e-17	$X=3.9785 $Y=-0.299
C1361	net1#3	gnd!	5.28936e-19	$X=3.4195 $Y=1.013
C1362	net4#4	gnd!	1.19537e-18	$X=3.4085 $Y=-0.893
C1363	net6#3	gnd!	7.98671e-18	$X=2.8015 $Y=0.788
C1364	Q#3	gnd!	9.78451e-19	$X=2.739 $Y=-0.9975
C1365	net3#3	gnd!	9.11708e-18	$X=2.1725 $Y=0.8
C1366	XI15/net2#2	gnd!	2.57241e-17	$X=2.0915 $Y=-0.299
C1367	XI9/net2#2	gnd!	1.9373e-17	$X=1.595 $Y=0.316
C1368	CLK#14	gnd!	1.83602e-18	$X=1.514 $Y=-0.893
C1369	CLK#5	gnd!	3.99454e-19	$X=0.348 $Y=1.0155
C1370	RST#3	gnd!	7.10329e-20	$X=0.35 $Y=-0.9975
C1371	vdd!#44	gnd!	1.7366e-18	$X=2.124 $Y=1.599
C1372	vdd!#42	gnd!	5.89791e-18	$X=0.825 $Y=-1.0005
C1373	net3#16	gnd!	2.47052e-17	$X=4.5105 $Y=0.691
C1374	net2#15	gnd!	2.94171e-19	$X=4.1415 $Y=-1.285
C1375	net4#25	gnd!	1.30917e-18	$X=3.6555 $Y=1.06
C1376	net4#23	gnd!	8.05517e-18	$X=2.756 $Y=-0.8385
C1377	vdd!#40	gnd!	4.07914e-19	$X=2.5545 $Y=1.6495
C1378	net2#13	gnd!	9.45132e-18	$X=2.5975 $Y=-1.3095
C1379	net3#14	gnd!	1.76763e-17	$X=2.384 $Y=0.466
C1380	vdd!#38	gnd!	1.353e-20	$X=0.7745 $Y=-1.631
C1381	net4#21	gnd!	9.14549e-19	$X=0.6095 $Y=1.0775
C1382	Q#7	gnd!	5.32916e-19	$X=4.9575 $Y=-1.309
C1383	net3#12	gnd!	6.94988e-18	$X=4.9 $Y=0.94
C1384	net11#5	gnd!	8.70816e-18	$X=4.5465 $Y=0.7785
C1385	net2#9	gnd!	4.41693e-18	$X=4.4655 $Y=-0.9515
C1386	net1#13	gnd!	7.16073e-18	$X=3.644 $Y=-1.0305
C1387	net11#2	gnd!	1.28267e-17	$X=3.735 $Y=0.779
C1388	net4#17	gnd!	2.64269e-18	$X=3.293 $Y=-0.879
C1389	net1#8	gnd!	1.88169e-17	$X=3.125 $Y=0.4805
C1390	net13#6	gnd!	7.95954e-18	$X=2.75 $Y=-0.7265
C1391	net6#9	gnd!	1.68289e-17	$X=2.3 $Y=0.7635
C1392	Q#6	gnd!	7.8727e-18	$X=2.905 $Y=-1.3015
C1393	vdd!#34	gnd!	3.79274e-19	$X=2.5545 $Y=1.6145
C1394	net2#6	gnd!	4.35492e-18	$X=2.271 $Y=-0.948
C1395	net13#2	gnd!	7.3651e-18	$X=2.1785 $Y=-0.759
C1396	net3#9	gnd!	3.82465e-18	$X=1.946 $Y=0.528
C1397	CLK#20	gnd!	1.44869e-17	$X=1.103 $Y=-0.947
C1398	vdd!#17	gnd!	1.10963e-19	$X=0.773 $Y=-1.596
C1399	net4#14	gnd!	8.09223e-19	$X=0.5915 $Y=1.0485
C1400	net6#6	gnd!	2.76661e-17	$X=0.678 $Y=-0.386
C1401	CLK#17	gnd!	4.63405e-17	$X=0.2035 $Y=0.9695
C1402	net3#11	gnd!	7.59342e-20	$X=4.855 $Y=1.2565
C1403	XI13/net2#3	gnd!	6.40042e-19	$X=4.2615 $Y=1.302
C1404	net2#11	gnd!	4.17525e-19	$X=4.1575 $Y=-1.233
C1405	vdd!#31	gnd!	4.18358e-19	$X=4.0685 $Y=1.3655
C1406	net1#14	gnd!	2.72841e-19	$X=3.9645 $Y=-1.2535
C1407	net11	gnd!	6.77109e-19	$X=3.601 $Y=1.274
C1408	XI18/net2#5	gnd!	5.0076e-18	$X=3.567 $Y=-1.285
C1409	vdd!#32	gnd!	6.12943e-19	$X=3.4085 $Y=1.352
C1410	vdd!#14	gnd!	3.25152e-19	$X=3.374 $Y=-1.3485
C1411	net1#5	gnd!	4.5717e-19	$X=2.982 $Y=1.2805
C1412	net13#7	gnd!	3.21382e-18	$X=2.907 $Y=-1.256
C1413	vdd!#33	gnd!	1.57711e-20	$X=2.788 $Y=1.3305
C1414	vdd!#15	gnd!	2.23551e-19	$X=2.7135 $Y=-1.335
C1415	net1#9	gnd!	1.027e-18	$X=2.367 $Y=1.229
C1416	net2#7	gnd!	2.51221e-18	$X=2.2655 $Y=-1.2525
C1417	vdd!#35	gnd!	3.87472e-19	$X=2.173 $Y=1.326
C1418	net13#3	gnd!	2.18418e-19	$X=2.072 $Y=-1.2135
C1419	net3#10	gnd!	3.10384e-18	$X=1.768 $Y=1.251
C1420	XI15/net2#5	gnd!	5.98847e-18	$X=1.6815 $Y=-1.285
C1421	D#2	gnd!	1.26003e-17	$X=1.574 $Y=1.246
C1422	vdd!#16	gnd!	6.57247e-19	$X=1.488 $Y=-1.3485
C1423	XI9/net2#3	gnd!	1.224e-19	$X=1.1855 $Y=1.302
C1424	vdd!#36	gnd!	3.12541e-19	$X=0.9915 $Y=1.3655
C1425	net4#13	gnd!	8.25926e-20	$X=0.5235 $Y=1.317
C1426	vdd!#37	gnd!	7.58675e-20	$X=0.3315 $Y=1.352
C1427	vdd!#19	gnd!	5.48855e-18	$X=2.383 $Y=1.4365
C1428	vdd!#1	gnd!	5.19391e-19	$X=2.5235 $Y=-1.3755
C1429	net3#13	gnd!	6.91346e-18	$X=4.8545 $Y=0.524
C1430	Q#9	gnd!	1.55974e-17	$X=4.799 $Y=-0.5365
C1431	net11#6	gnd!	1.15804e-18	$X=4.6615 $Y=0.5035
C1432	XI13/net2#5	gnd!	2.31924e-18	$X=4.267 $Y=0.52
C1433	net2#12	gnd!	3.50748e-18	$X=4.1575 $Y=-0.506
C1434	net1#12	gnd!	3.47651e-18	$X=3.9625 $Y=-0.523
C1435	net11#3	gnd!	1.34501e-18	$X=3.6055 $Y=0.521
C1436	XI18/net2#3	gnd!	5.21491e-18	$X=3.57 $Y=-0.502
C1437	net1#10	gnd!	1.30415e-18	$X=2.983 $Y=0.5395
C1438	net13#4	gnd!	3.54463e-18	$X=2.9085 $Y=-0.5025
C1439	XI11/net3	gnd!	8.5507e-18	$X=2.7885 $Y=0.4815
C1440	XI11/net3#2	gnd!	1.00105e-17	$X=2.366 $Y=0.4815
C1441	net2#5	gnd!	7.39786e-18	$X=2.266 $Y=-0.5225
C1442	net13	gnd!	1.27619e-18	$X=2.0715 $Y=-0.485
C1443	net3#8	gnd!	2.53909e-18	$X=1.768 $Y=0.524
C1444	XI15/net2#3	gnd!	5.34005e-18	$X=1.6785 $Y=-0.502
C1445	D#1	gnd!	4.6188e-18	$X=1.574 $Y=0.5265
C1446	XI9/net2#5	gnd!	2.10608e-18	$X=1.1805 $Y=0.52
C1447	net4#15	gnd!	1.16116e-18	$X=0.52 $Y=0.561
C1448	net6#5	gnd!	7.49142e-19	$X=0.517 $Y=-0.503
C1449	XI9/net2#4	gnd!	7.57011e-18	$X=1.2745 $Y=0.872
C1450	XI15/net2#4	gnd!	1.23431e-17	$X=1.7705 $Y=-0.855
C1451	net3#6	gnd!	4.76901e-18	$X=1.9475 $Y=0.785
C1452	net3#7	gnd!	3.5335e-18	$X=1.7725 $Y=0.8955
C1453	net13#5	gnd!	5.88466e-18	$X=2.9135 $Y=-0.7985
C1454	net1#6	gnd!	6.92706e-19	$X=2.7675 $Y=0.9685
C1455	net1#7	gnd!	4.27072e-18	$X=2.9885 $Y=0.775
C1456	XI18/net2#4	gnd!	1.41488e-17	$X=3.657 $Y=-0.855
C1457	net2#10	gnd!	4.46322e-18	$X=4.163 $Y=-0.877
C1458	XI13/net2#4	gnd!	6.90708e-18	$X=4.3515 $Y=0.872
C1459	vdd!#5	gnd!	2.82626e-19	$X=3.368 $Y=-1.6775
C1460	vdd!#7	gnd!	1.61966e-19	$X=2.709 $Y=-1.682
C1461	vdd!#12	gnd!	1.85541e-19	$X=0.3155 $Y=-1.6825
C1462	vdd!#20	gnd!	2.18265e-19	$X=4.0635 $Y=1.696
C1463	vdd!#22	gnd!	2.56046e-19	$X=3.407 $Y=1.7005
C1464	vdd!#24	gnd!	5.32076e-19	$X=2.7835 $Y=1.6905
C1465	vdd!#25	gnd!	2.97785e-19	$X=2.5545 $Y=1.763
C1466	vdd!#28	gnd!	4.91796e-19	$X=0.9935 $Y=1.6885
C1467	vdd!#30	gnd!	1.03815e-19	$X=0.3155 $Y=1.7005
C1468	RST#2	gnd!	4.04247e-18	$X=0.417 $Y=-0.934
C1469	CLK#2	gnd!	3.92642e-19	$X=1.085 $Y=1.5385
C1470	CLK#4	gnd!	3.40718e-18	$X=0.417 $Y=0.9535
C1471	CLK#7	gnd!	1.13025e-17	$X=1.049 $Y=0.903
C1472	CLK#13	gnd!	5.88719e-18	$X=1.5795 $Y=-0.8815
C1473	net3#2	gnd!	5.30229e-18	$X=2.2675 $Y=0.8425
C1474	Q#2	gnd!	4.95938e-18	$X=2.8115 $Y=-0.934
C1475	net6#2	gnd!	5.80289e-18	$X=2.886 $Y=0.836
C1476	net1#2	gnd!	3.14898e-18	$X=3.51 $Y=0.9535
C1477	net4#3	gnd!	4.87784e-18	$X=3.475 $Y=-0.8815
C1478	net2#2	gnd!	6.10426e-18	$X=4.707 $Y=-0.934
C1479	net4#8	gnd!	1.51714e-18	$X=4.175 $Y=1.0895
C1480	net4#10	gnd!	1.03235e-17	$X=4.1345 $Y=0.8795
C1481	net4#28	gnd!	2.17592e-17	$X=1.0035 $Y=0.114
*
*
.ENDS ph1p3_MSDFF
*
